MODEL 1
REMARK VINA RESULT:      -8.1      0.000      0.000
REMARK  31 active torsions:
REMARK  status: ('A' for Active; 'I' for Inactive)
REMARK    1  A    between atoms: O_2  and  C_34 
REMARK    2  A    between atoms: O_2  and  C_26 
REMARK    3  A    between atoms: O_3  and  C_27 
REMARK    4  A    between atoms: O_3  and  C_35 
REMARK    5  A    between atoms: O_4  and  C_28 
REMARK    6  A    between atoms: O_4  and  C_36 
REMARK    7  A    between atoms: O_5  and  C_32 
REMARK    8  A    between atoms: O_5  and  C_41 
REMARK    9  A    between atoms: O_11  and  C_51 
REMARK   10  A    between atoms: O_12  and  C_52 
REMARK   11  A    between atoms: O_13  and  C_53 
REMARK   12  A    between atoms: O_14  and  C_54 
REMARK   13  A    between atoms: O_15  and  C_55 
REMARK   14  A    between atoms: O_16  and  C_56 
REMARK   15  A    between atoms: O_17  and  C_57 
REMARK   16  A    between atoms: O_18  and  C_58 
REMARK   17  A    between atoms: O_19  and  C_59 
REMARK   18  A    between atoms: O_20  and  C_62 
REMARK   19  A    between atoms: O_21  and  C_63 
REMARK   20  A    between atoms: O_22  and  C_64 
REMARK   21  A    between atoms: O_23  and  C_65 
REMARK   22  A    between atoms: O_24  and  C_66 
REMARK   23  A    between atoms: O_25  and  C_67 
REMARK   24  A    between atoms: C_29  and  C_31 
REMARK   25  A    between atoms: C_30  and  C_32 
REMARK   26  A    between atoms: C_31  and  C_33 
REMARK   27  A    between atoms: C_33  and  C_37 
REMARK   28  A    between atoms: C_34  and  C_38 
REMARK   29  A    between atoms: C_35  and  C_39 
REMARK   30  A    between atoms: C_36  and  C_40 
REMARK   31  A    between atoms: C_41  and  C_44 
ROOT
HETATM    1  O   UNL     1     -13.170  -4.876  -2.741  1.00  0.00    -0.373 OA
HETATM    2  C   UNL     1     -11.521  -5.814  -0.541  1.00  0.00     0.196 C 
HETATM    3  C   UNL     1     -12.467  -6.786  -1.269  1.00  0.00     0.193 C 
HETATM    4  C   UNL     1     -11.821  -4.320  -0.758  1.00  0.00     0.195 C 
HETATM    5  C   UNL     1     -12.987  -6.287  -2.639  1.00  0.00     0.161 C 
HETATM    6  C   UNL     1     -12.200  -3.977  -2.203  1.00  0.00     0.178 C 
ENDROOT
BRANCH   5   7
HETATM    7  C   UNL     1     -12.213  -6.818  -3.851  1.00  0.00     0.118 C 
BRANCH   7   8
HETATM    8  C   UNL     1     -13.155  -6.912  -5.042  1.00  0.00     0.162 C 
HETATM    9  O   UNL     1     -13.940  -7.839  -5.221  1.00  0.00    -0.292 OA
BRANCH   8  10
HETATM   10  C   UNL     1     -13.212  -5.771  -5.978  1.00  0.00     0.015 C 
HETATM   11  C   UNL     1     -11.939  -5.563  -7.276  1.00  0.00     0.054 C 
HETATM   12  C   UNL     1     -11.792  -3.951  -8.096  1.00  0.00     0.102 C 
HETATM   13  C   UNL     1     -13.064  -2.660  -7.850  1.00  0.00     0.132 C 
HETATM   14  C   UNL     1     -14.450  -2.956  -6.715  1.00  0.00     0.102 C 
HETATM   15  C   UNL     1     -14.459  -4.451  -5.684  1.00  0.00     0.054 C 
BRANCH  12  16
HETATM   16  O   UNL     1     -10.736  -3.700  -8.919  1.00  0.00    -0.358 OA
HETATM   17  H   UNL     1     -10.167  -3.045  -8.484  1.00  0.00     0.217 HD
ENDBRANCH  12  16
BRANCH  13  18
HETATM   18  O   UNL     1     -12.967  -1.455  -8.477  1.00  0.00    -0.356 OA
HETATM   19  H   UNL     1     -13.501  -0.856  -7.922  1.00  0.00     0.218 HD
ENDBRANCH  13  18
BRANCH  14  20
HETATM   20  O   UNL     1     -15.350  -1.953  -6.516  1.00  0.00    -0.358 OA
HETATM   21  H   UNL     1     -14.950  -1.352  -5.865  1.00  0.00     0.217 HD
ENDBRANCH  14  20
ENDBRANCH   8  10
ENDBRANCH   7   8
ENDBRANCH   5   7
BRANCH   6  22
HETATM   22  C   UNL     1     -10.931  -3.801  -3.069  1.00  0.00     0.213 C 
BRANCH  22  23
HETATM   23  O   UNL     1      -9.868  -3.094  -2.408  1.00  0.00    -0.315 OA
BRANCH  23  24
HETATM   24  C   UNL     1      -8.891  -2.265  -3.144  1.00  0.00     0.293 C 
HETATM   25  O   UNL     1      -9.535  -1.185  -3.242  1.00  0.00    -0.259 OA
BRANCH  24  26
HETATM   26  C   UNL     1      -6.949  -2.906  -3.817  1.00  0.00     0.045 A 
HETATM   27  C   UNL     1      -5.922  -3.860  -3.161  1.00  0.00     0.057 A 
HETATM   28  C   UNL     1      -4.638  -4.275  -3.610  1.00  0.00     0.102 A 
HETATM   29  C   UNL     1      -4.139  -3.848  -4.808  1.00  0.00     0.132 A 
HETATM   30  C   UNL     1      -4.905  -3.001  -5.556  1.00  0.00     0.102 A 
HETATM   31  C   UNL     1      -6.182  -2.573  -5.112  1.00  0.00     0.057 A 
BRANCH  28  32
HETATM   32  O   UNL     1      -3.852  -5.116  -2.866  1.00  0.00    -0.358 OA
HETATM   33  H   UNL     1      -4.088  -5.022  -1.924  1.00  0.00     0.217 HD
ENDBRANCH  28  32
BRANCH  29  34
HETATM   34  O   UNL     1      -2.915  -4.245  -5.258  1.00  0.00    -0.356 OA
HETATM   35  H   UNL     1      -3.108  -5.008  -5.841  1.00  0.00     0.218 HD
ENDBRANCH  29  34
BRANCH  30  36
HETATM   36  O   UNL     1      -4.437  -2.549  -6.760  1.00  0.00    -0.358 OA
HETATM   37  H   UNL     1      -4.068  -3.341  -7.200  1.00  0.00     0.217 HD
ENDBRANCH  30  36
ENDBRANCH  24  26
ENDBRANCH  23  24
ENDBRANCH  22  23
ENDBRANCH   6  22
BRANCH   3  38
HETATM   38  O   UNL     1     -13.611  -6.965  -0.392  1.00  0.00    -0.307 OA
BRANCH  38  39
HETATM   39  C   UNL     1     -13.447  -7.846   0.623  1.00  0.00     0.294 C 
HETATM   40  O   UNL     1     -13.413  -7.605   1.814  1.00  0.00    -0.259 OA
BRANCH  39  41
HETATM   41  C   UNL     1     -13.611  -9.188   0.041  1.00  0.00     0.045 A 
HETATM   42  C   UNL     1     -12.628 -10.174   0.209  1.00  0.00     0.057 A 
HETATM   43  C   UNL     1     -12.775 -11.382  -0.466  1.00  0.00     0.102 A 
HETATM   44  C   UNL     1     -13.865 -11.589  -1.308  1.00  0.00     0.132 A 
HETATM   45  C   UNL     1     -14.834 -10.605  -1.460  1.00  0.00     0.102 A 
HETATM   46  C   UNL     1     -14.727  -9.404  -0.778  1.00  0.00     0.057 A 
BRANCH  43  47
HETATM   47  O   UNL     1     -11.845 -12.381  -0.357  1.00  0.00    -0.358 OA
HETATM   48  H   UNL     1     -11.100 -12.157  -0.945  1.00  0.00     0.217 HD
ENDBRANCH  43  47
BRANCH  44  49
HETATM   49  O   UNL     1     -13.999 -12.756  -2.009  1.00  0.00    -0.356 OA
HETATM   50  H   UNL     1     -13.266 -12.747  -2.656  1.00  0.00     0.218 HD
ENDBRANCH  44  49
BRANCH  45  51
HETATM   51  O   UNL     1     -15.887 -10.800  -2.304  1.00  0.00    -0.358 OA
HETATM   52  H   UNL     1     -15.543 -11.389  -3.006  1.00  0.00     0.217 HD
ENDBRANCH  45  51
ENDBRANCH  39  41
ENDBRANCH  38  39
ENDBRANCH   3  38
BRANCH   4  53
HETATM   53  O   UNL     1     -12.698  -3.743   0.249  1.00  0.00    -0.307 OA
BRANCH  53  54
HETATM   54  C   UNL     1     -12.522  -2.528   0.800  1.00  0.00     0.294 C 
HETATM   55  O   UNL     1     -12.172  -2.261   1.934  1.00  0.00    -0.259 OA
BRANCH  54  56
HETATM   56  C   UNL     1     -12.827  -1.481  -0.209  1.00  0.00     0.045 A 
HETATM   57  C   UNL     1     -11.777  -0.652  -0.638  1.00  0.00     0.057 A 
HETATM   58  C   UNL     1     -12.031   0.354  -1.563  1.00  0.00     0.102 A 
HETATM   59  C   UNL     1     -13.322   0.558  -2.034  1.00  0.00     0.132 A 
HETATM   60  C   UNL     1     -14.364  -0.251  -1.597  1.00  0.00     0.102 A 
HETATM   61  C   UNL     1     -14.129  -1.277  -0.692  1.00  0.00     0.057 A 
BRANCH  58  62
HETATM   62  O   UNL     1     -11.040   1.168  -2.035  1.00  0.00    -0.358 OA
HETATM   63  H   UNL     1     -11.226   1.360  -2.971  1.00  0.00     0.217 HD
ENDBRANCH  58  62
BRANCH  59  64
HETATM   64  O   UNL     1     -13.591   1.562  -2.924  1.00  0.00    -0.356 OA
HETATM   65  H   UNL     1     -14.250   2.123  -2.465  1.00  0.00     0.218 HD
ENDBRANCH  59  64
BRANCH  60  66
HETATM   66  O   UNL     1     -15.633  -0.037  -2.048  1.00  0.00    -0.358 OA
HETATM   67  H   UNL     1     -15.896   0.821  -1.658  1.00  0.00     0.217 HD
ENDBRANCH  60  66
ENDBRANCH  54  56
ENDBRANCH  53  54
ENDBRANCH   4  53
BRANCH   2  68
HETATM   68  O   UNL     1     -10.155  -6.023  -0.980  1.00  0.00    -0.307 OA
BRANCH  68  69
HETATM   69  C   UNL     1      -9.277  -6.410  -0.024  1.00  0.00     0.294 C 
HETATM   70  O   UNL     1      -8.571  -5.678   0.645  1.00  0.00    -0.259 OA
BRANCH  69  71
HETATM   71  C   UNL     1      -9.230  -7.890   0.062  1.00  0.00     0.045 A 
HETATM   72  C   UNL     1      -8.820  -8.477   1.270  1.00  0.00     0.057 A 
HETATM   73  C   UNL     1      -8.679  -9.859   1.341  1.00  0.00     0.102 A 
HETATM   74  C   UNL     1      -8.933 -10.648   0.224  1.00  0.00     0.132 A 
HETATM   75  C   UNL     1      -9.336 -10.063  -0.969  1.00  0.00     0.102 A 
HETATM   76  C   UNL     1      -9.490  -8.689  -1.063  1.00  0.00     0.057 A 
BRANCH  73  77
HETATM   77  O   UNL     1      -8.275 -10.491   2.484  1.00  0.00    -0.358 OA
HETATM   78  H   UNL     1      -7.435 -10.950   2.306  1.00  0.00     0.217 HD
ENDBRANCH  73  77
BRANCH  74  79
HETATM   79  O   UNL     1      -8.774 -12.005   0.276  1.00  0.00    -0.356 OA
HETATM   80  H   UNL     1      -9.674 -12.350   0.447  1.00  0.00     0.218 HD
ENDBRANCH  74  79
BRANCH  75  81
HETATM   81  O   UNL     1      -9.563 -10.834  -2.072  1.00  0.00    -0.358 OA
HETATM   82  H   UNL     1      -9.286 -11.736  -1.810  1.00  0.00     0.217 HD
ENDBRANCH  75  81
ENDBRANCH  69  71
ENDBRANCH  68  69
ENDBRANCH   2  68
TORSDOF 31
ENDMDL
MODEL 2
REMARK VINA RESULT:      -8.0      2.078      7.419
REMARK  31 active torsions:
REMARK  status: ('A' for Active; 'I' for Inactive)
REMARK    1  A    between atoms: O_2  and  C_34 
REMARK    2  A    between atoms: O_2  and  C_26 
REMARK    3  A    between atoms: O_3  and  C_27 
REMARK    4  A    between atoms: O_3  and  C_35 
REMARK    5  A    between atoms: O_4  and  C_28 
REMARK    6  A    between atoms: O_4  and  C_36 
REMARK    7  A    between atoms: O_5  and  C_32 
REMARK    8  A    between atoms: O_5  and  C_41 
REMARK    9  A    between atoms: O_11  and  C_51 
REMARK   10  A    between atoms: O_12  and  C_52 
REMARK   11  A    between atoms: O_13  and  C_53 
REMARK   12  A    between atoms: O_14  and  C_54 
REMARK   13  A    between atoms: O_15  and  C_55 
REMARK   14  A    between atoms: O_16  and  C_56 
REMARK   15  A    between atoms: O_17  and  C_57 
REMARK   16  A    between atoms: O_18  and  C_58 
REMARK   17  A    between atoms: O_19  and  C_59 
REMARK   18  A    between atoms: O_20  and  C_62 
REMARK   19  A    between atoms: O_21  and  C_63 
REMARK   20  A    between atoms: O_22  and  C_64 
REMARK   21  A    between atoms: O_23  and  C_65 
REMARK   22  A    between atoms: O_24  and  C_66 
REMARK   23  A    between atoms: O_25  and  C_67 
REMARK   24  A    between atoms: C_29  and  C_31 
REMARK   25  A    between atoms: C_30  and  C_32 
REMARK   26  A    between atoms: C_31  and  C_33 
REMARK   27  A    between atoms: C_33  and  C_37 
REMARK   28  A    between atoms: C_34  and  C_38 
REMARK   29  A    between atoms: C_35  and  C_39 
REMARK   30  A    between atoms: C_36  and  C_40 
REMARK   31  A    between atoms: C_41  and  C_44 
ROOT
HETATM    1  O   UNL     1     -11.330  -2.783  -3.933  1.00  0.00    -0.373 OA
HETATM    2  C   UNL     1     -10.403  -3.829  -1.387  1.00  0.00     0.196 C 
HETATM    3  C   UNL     1     -11.608  -2.872  -1.438  1.00  0.00     0.193 C 
HETATM    4  C   UNL     1      -9.515  -3.836  -2.645  1.00  0.00     0.195 C 
HETATM    5  C   UNL     1     -12.242  -2.697  -2.840  1.00  0.00     0.161 C 
HETATM    6  C   UNL     1     -10.313  -3.784  -3.953  1.00  0.00     0.178 C 
ENDROOT
BRANCH   5   7
HETATM    7  C   UNL     1     -13.477  -3.570  -3.098  1.00  0.00     0.118 C 
BRANCH   7   8
HETATM    8  C   UNL     1     -14.415  -2.836  -4.044  1.00  0.00     0.162 C 
HETATM    9  O   UNL     1     -14.784  -1.677  -3.878  1.00  0.00    -0.292 OA
BRANCH   8  10
HETATM   10  C   UNL     1     -14.819  -3.514  -5.292  1.00  0.00     0.015 C 
HETATM   11  C   UNL     1     -15.349  -5.266  -5.274  1.00  0.00     0.054 C 
HETATM   12  C   UNL     1     -15.405  -6.171  -6.846  1.00  0.00     0.102 C 
HETATM   13  C   UNL     1     -15.224  -5.289  -8.437  1.00  0.00     0.132 C 
HETATM   14  C   UNL     1     -14.907  -3.501  -8.453  1.00  0.00     0.102 C 
HETATM   15  C   UNL     1     -14.577  -2.637  -6.890  1.00  0.00     0.054 C 
BRANCH  12  16
HETATM   16  O   UNL     1     -15.602  -7.519  -6.847  1.00  0.00    -0.358 OA
HETATM   17  H   UNL     1     -16.249  -7.726  -7.541  1.00  0.00     0.217 HD
ENDBRANCH  12  16
BRANCH  13  18
HETATM   18  O   UNL     1     -15.282  -5.962  -9.619  1.00  0.00    -0.356 OA
HETATM   19  H   UNL     1     -14.894  -5.341 -10.264  1.00  0.00     0.218 HD
ENDBRANCH  13  18
BRANCH  14  20
HETATM   20  O   UNL     1     -14.725  -2.887  -9.655  1.00  0.00    -0.358 OA
HETATM   21  H   UNL     1     -15.613  -2.703 -10.005  1.00  0.00     0.217 HD
ENDBRANCH  14  20
ENDBRANCH   8  10
ENDBRANCH   7   8
ENDBRANCH   5   7
BRANCH   6  22
HETATM   22  C   UNL     1     -10.802  -5.197  -4.346  1.00  0.00     0.213 C 
BRANCH  22  23
HETATM   23  O   UNL     1     -11.856  -5.198  -5.323  1.00  0.00    -0.315 OA
BRANCH  23  24
HETATM   24  C   UNL     1     -11.614  -4.904  -6.750  1.00  0.00     0.293 C 
HETATM   25  O   UNL     1     -11.940  -6.006  -7.270  1.00  0.00    -0.259 OA
BRANCH  24  26
HETATM   26  C   UNL     1     -10.869  -3.047  -7.545  1.00  0.00     0.045 A 
HETATM   27  C   UNL     1      -9.621  -2.217  -7.158  1.00  0.00     0.057 A 
HETATM   28  C   UNL     1      -9.138  -0.987  -7.684  1.00  0.00     0.102 A 
HETATM   29  C   UNL     1      -9.782  -0.361  -8.714  1.00  0.00     0.132 A 
HETATM   30  C   UNL     1     -10.910  -0.944  -9.214  1.00  0.00     0.102 A 
HETATM   31  C   UNL     1     -11.405  -2.164  -8.689  1.00  0.00     0.057 A 
BRANCH  28  32
HETATM   32  O   UNL     1      -8.013  -0.383  -7.185  1.00  0.00    -0.358 OA
HETATM   33  H   UNL     1      -7.756  -0.826  -6.355  1.00  0.00     0.217 HD
ENDBRANCH  28  32
BRANCH  29  34
HETATM   34  O   UNL     1      -9.325   0.813  -9.237  1.00  0.00    -0.356 OA
HETATM   35  H   UNL     1      -8.350   0.737  -9.185  1.00  0.00     0.218 HD
ENDBRANCH  29  34
BRANCH  30  36
HETATM   36  O   UNL     1     -11.583  -0.345 -10.244  1.00  0.00    -0.358 OA
HETATM   37  H   UNL     1     -12.528  -0.532 -10.070  1.00  0.00     0.217 HD
ENDBRANCH  30  36
ENDBRANCH  24  26
ENDBRANCH  23  24
ENDBRANCH  22  23
ENDBRANCH   6  22
BRANCH   3  38
HETATM   38  O   UNL     1     -11.111  -1.577  -1.005  1.00  0.00    -0.307 OA
BRANCH  38  39
HETATM   39  C   UNL     1     -11.960  -0.838  -0.255  1.00  0.00     0.294 C 
HETATM   40  O   UNL     1     -12.257  -1.007   0.912  1.00  0.00    -0.259 OA
BRANCH  39  41
HETATM   41  C   UNL     1     -12.240   0.386  -1.024  1.00  0.00     0.045 A 
HETATM   42  C   UNL     1     -13.492   0.599  -1.617  1.00  0.00     0.057 A 
HETATM   43  C   UNL     1     -13.662   1.711  -2.436  1.00  0.00     0.102 A 
HETATM   44  C   UNL     1     -12.597   2.576  -2.676  1.00  0.00     0.132 A 
HETATM   45  C   UNL     1     -11.362   2.356  -2.076  1.00  0.00     0.102 A 
HETATM   46  C   UNL     1     -11.174   1.272  -1.234  1.00  0.00     0.057 A 
BRANCH  43  47
HETATM   47  O   UNL     1     -14.854   1.969  -3.056  1.00  0.00    -0.358 OA
HETATM   48  H   UNL     1     -14.661   2.466  -3.873  1.00  0.00     0.217 HD
ENDBRANCH  43  47
BRANCH  44  49
HETATM   49  O   UNL     1     -12.738   3.649  -3.511  1.00  0.00    -0.356 OA
HETATM   50  H   UNL     1     -12.176   4.348  -3.122  1.00  0.00     0.218 HD
ENDBRANCH  44  49
BRANCH  45  51
HETATM   51  O   UNL     1     -10.315   3.190  -2.333  1.00  0.00    -0.358 OA
HETATM   52  H   UNL     1      -9.518   2.626  -2.263  1.00  0.00     0.217 HD
ENDBRANCH  45  51
ENDBRANCH  39  41
ENDBRANCH  38  39
ENDBRANCH   3  38
BRANCH   4  53
HETATM   53  O   UNL     1      -8.397  -2.909  -2.581  1.00  0.00    -0.307 OA
BRANCH  53  54
HETATM   54  C   UNL     1      -7.910  -2.237  -3.641  1.00  0.00     0.294 C 
HETATM   55  O   UNL     1      -8.412  -1.298  -4.230  1.00  0.00    -0.259 OA
BRANCH  54  56
HETATM   56  C   UNL     1      -6.598  -2.815  -4.031  1.00  0.00     0.045 A 
HETATM   57  C   UNL     1      -6.074  -2.473  -5.289  1.00  0.00     0.057 A 
HETATM   58  C   UNL     1      -4.860  -3.015  -5.696  1.00  0.00     0.102 A 
HETATM   59  C   UNL     1      -4.188  -3.913  -4.877  1.00  0.00     0.132 A 
HETATM   60  C   UNL     1      -4.714  -4.263  -3.640  1.00  0.00     0.102 A 
HETATM   61  C   UNL     1      -5.912  -3.717  -3.202  1.00  0.00     0.057 A 
BRANCH  58  62
HETATM   62  O   UNL     1      -4.293  -2.693  -6.897  1.00  0.00    -0.358 OA
HETATM   63  H   UNL     1      -3.954  -1.782  -6.837  1.00  0.00     0.217 HD
ENDBRANCH  58  62
BRANCH  59  64
HETATM   64  O   UNL     1      -3.005  -4.473  -5.278  1.00  0.00    -0.356 OA
HETATM   65  H   UNL     1      -2.321  -3.960  -4.800  1.00  0.00     0.218 HD
ENDBRANCH  59  64
BRANCH  60  66
HETATM   66  O   UNL     1      -4.059  -5.158  -2.845  1.00  0.00    -0.358 OA
HETATM   67  H   UNL     1      -4.762  -5.746  -2.499  1.00  0.00     0.217 HD
ENDBRANCH  60  66
ENDBRANCH  54  56
ENDBRANCH  53  54
ENDBRANCH   4  53
BRANCH   2  68
HETATM   68  O   UNL     1     -10.855  -5.193  -1.200  1.00  0.00    -0.307 OA
BRANCH  68  69
HETATM   69  C   UNL     1     -10.447  -5.803  -0.061  1.00  0.00     0.294 C 
HETATM   70  O   UNL     1     -10.350  -5.287   1.037  1.00  0.00    -0.259 OA
BRANCH  69  71
HETATM   71  C   UNL     1     -10.054  -7.205  -0.341  1.00  0.00     0.045 A 
HETATM   72  C   UNL     1     -11.056  -8.122  -0.700  1.00  0.00     0.057 A 
HETATM   73  C   UNL     1     -10.722  -9.461  -0.873  1.00  0.00     0.102 A 
HETATM   74  C   UNL     1      -9.412  -9.886  -0.686  1.00  0.00     0.132 A 
HETATM   75  C   UNL     1      -8.425  -8.978  -0.329  1.00  0.00     0.102 A 
HETATM   76  C   UNL     1      -8.731  -7.638  -0.156  1.00  0.00     0.057 A 
BRANCH  73  77
HETATM   77  O   UNL     1     -11.652 -10.403  -1.214  1.00  0.00    -0.358 OA
HETATM   78  H   UNL     1     -11.606 -10.552  -2.175  1.00  0.00     0.217 HD
ENDBRANCH  73  77
BRANCH  74  79
HETATM   79  O   UNL     1      -9.078 -11.205  -0.831  1.00  0.00    -0.356 OA
HETATM   80  H   UNL     1      -9.555 -11.659  -0.107  1.00  0.00     0.218 HD
ENDBRANCH  74  79
BRANCH  75  81
HETATM   81  O   UNL     1      -7.143  -9.399  -0.122  1.00  0.00    -0.358 OA
HETATM   82  H   UNL     1      -6.934  -9.129   0.794  1.00  0.00     0.217 HD
ENDBRANCH  75  81
ENDBRANCH  69  71
ENDBRANCH  68  69
ENDBRANCH   2  68
TORSDOF 31
ENDMDL
MODEL 3
REMARK VINA RESULT:      -7.9      2.160      7.580
REMARK  31 active torsions:
REMARK  status: ('A' for Active; 'I' for Inactive)
REMARK    1  A    between atoms: O_2  and  C_34 
REMARK    2  A    between atoms: O_2  and  C_26 
REMARK    3  A    between atoms: O_3  and  C_27 
REMARK    4  A    between atoms: O_3  and  C_35 
REMARK    5  A    between atoms: O_4  and  C_28 
REMARK    6  A    between atoms: O_4  and  C_36 
REMARK    7  A    between atoms: O_5  and  C_32 
REMARK    8  A    between atoms: O_5  and  C_41 
REMARK    9  A    between atoms: O_11  and  C_51 
REMARK   10  A    between atoms: O_12  and  C_52 
REMARK   11  A    between atoms: O_13  and  C_53 
REMARK   12  A    between atoms: O_14  and  C_54 
REMARK   13  A    between atoms: O_15  and  C_55 
REMARK   14  A    between atoms: O_16  and  C_56 
REMARK   15  A    between atoms: O_17  and  C_57 
REMARK   16  A    between atoms: O_18  and  C_58 
REMARK   17  A    between atoms: O_19  and  C_59 
REMARK   18  A    between atoms: O_20  and  C_62 
REMARK   19  A    between atoms: O_21  and  C_63 
REMARK   20  A    between atoms: O_22  and  C_64 
REMARK   21  A    between atoms: O_23  and  C_65 
REMARK   22  A    between atoms: O_24  and  C_66 
REMARK   23  A    between atoms: O_25  and  C_67 
REMARK   24  A    between atoms: C_29  and  C_31 
REMARK   25  A    between atoms: C_30  and  C_32 
REMARK   26  A    between atoms: C_31  and  C_33 
REMARK   27  A    between atoms: C_33  and  C_37 
REMARK   28  A    between atoms: C_34  and  C_38 
REMARK   29  A    between atoms: C_35  and  C_39 
REMARK   30  A    between atoms: C_36  and  C_40 
REMARK   31  A    between atoms: C_41  and  C_44 
ROOT
HETATM    1  O   UNL     1     -12.281  -2.834  -3.296  1.00  0.00    -0.373 OA
HETATM    2  C   UNL     1     -11.494  -3.564  -0.596  1.00  0.00     0.196 C 
HETATM    3  C   UNL     1     -12.501  -2.422  -0.828  1.00  0.00     0.193 C 
HETATM    4  C   UNL     1     -10.659  -3.962  -1.826  1.00  0.00     0.195 C 
HETATM    5  C   UNL     1     -13.130  -2.384  -2.241  1.00  0.00     0.161 C 
HETATM    6  C   UNL     1     -11.468  -3.997  -3.127  1.00  0.00     0.178 C 
ENDROOT
BRANCH   5   7
HETATM    7  C   UNL     1     -14.512  -3.041  -2.346  1.00  0.00     0.118 C 
BRANCH   7   8
HETATM    8  C   UNL     1     -15.029  -2.888  -3.769  1.00  0.00     0.162 C 
HETATM    9  O   UNL     1     -15.093  -1.815  -4.360  1.00  0.00    -0.292 OA
BRANCH   8  10
HETATM   10  C   UNL     1     -15.368  -4.112  -4.522  1.00  0.00     0.015 C 
HETATM   11  C   UNL     1     -15.927  -5.621  -3.652  1.00  0.00     0.054 C 
HETATM   12  C   UNL     1     -15.904  -7.199  -4.549  1.00  0.00     0.102 C 
HETATM   13  C   UNL     1     -15.614  -7.241  -6.353  1.00  0.00     0.132 C 
HETATM   14  C   UNL     1     -15.268  -5.702  -7.254  1.00  0.00     0.102 C 
HETATM   15  C   UNL     1     -15.018  -4.161  -6.327  1.00  0.00     0.054 C 
BRANCH  12  16
HETATM   16  O   UNL     1     -16.122  -8.365  -3.879  1.00  0.00    -0.358 OA
HETATM   17  H   UNL     1     -16.311  -9.055  -4.535  1.00  0.00     0.217 HD
ENDBRANCH  12  16
BRANCH  13  18
HETATM   18  O   UNL     1     -15.613  -8.420  -7.034  1.00  0.00    -0.356 OA
HETATM   19  H   UNL     1     -14.716  -8.776  -6.889  1.00  0.00     0.218 HD
ENDBRANCH  13  18
BRANCH  14  20
HETATM   20  O   UNL     1     -15.006  -5.778  -8.588  1.00  0.00    -0.358 OA
HETATM   21  H   UNL     1     -15.524  -5.071  -9.010  1.00  0.00     0.217 HD
ENDBRANCH  14  20
ENDBRANCH   8  10
ENDBRANCH   7   8
ENDBRANCH   5   7
BRANCH   6  22
HETATM   22  C   UNL     1     -12.223  -5.339  -3.262  1.00  0.00     0.213 C 
BRANCH  22  23
HETATM   23  O   UNL     1     -12.644  -5.640  -4.603  1.00  0.00    -0.315 OA
BRANCH  23  24
HETATM   24  C   UNL     1     -11.728  -5.548  -5.759  1.00  0.00     0.293 C 
HETATM   25  O   UNL     1     -11.315  -6.738  -5.819  1.00  0.00    -0.259 OA
BRANCH  24  26
HETATM   26  C   UNL     1     -11.310  -3.768  -6.896  1.00  0.00     0.045 A 
HETATM   27  C   UNL     1     -10.098  -2.807  -6.849  1.00  0.00     0.057 A 
HETATM   28  C   UNL     1      -9.831  -1.630  -7.600  1.00  0.00     0.102 A 
HETATM   29  C   UNL     1     -10.699  -1.196  -8.562  1.00  0.00     0.132 A 
HETATM   30  C   UNL     1     -11.837  -1.921  -8.772  1.00  0.00     0.102 A 
HETATM   31  C   UNL     1     -12.117  -3.090  -8.021  1.00  0.00     0.057 A 
BRANCH  28  32
HETATM   32  O   UNL     1      -8.699  -0.885  -7.393  1.00  0.00    -0.358 OA
HETATM   33  H   UNL     1      -7.918  -1.426  -7.613  1.00  0.00     0.217 HD
ENDBRANCH  28  32
BRANCH  29  34
HETATM   34  O   UNL     1     -10.453  -0.075  -9.298  1.00  0.00    -0.356 OA
HETATM   35  H   UNL     1      -9.948  -0.401 -10.072  1.00  0.00     0.218 HD
ENDBRANCH  29  34
BRANCH  30  36
HETATM   36  O   UNL     1     -12.732  -1.516  -9.725  1.00  0.00    -0.358 OA
HETATM   37  H   UNL     1     -13.607  -1.783  -9.378  1.00  0.00     0.217 HD
ENDBRANCH  30  36
ENDBRANCH  24  26
ENDBRANCH  23  24
ENDBRANCH  22  23
ENDBRANCH   6  22
BRANCH   3  38
HETATM   38  O   UNL     1     -11.759  -1.188  -0.632  1.00  0.00    -0.307 OA
BRANCH  38  39
HETATM   39  C   UNL     1     -12.037  -0.503   0.501  1.00  0.00     0.294 C 
HETATM   40  O   UNL     1     -12.046  -0.929   1.640  1.00  0.00    -0.259 OA
BRANCH  39  41
HETATM   41  C   UNL     1     -12.043   0.924   0.137  1.00  0.00     0.045 A 
HETATM   42  C   UNL     1     -12.982   1.807   0.686  1.00  0.00     0.057 A 
HETATM   43  C   UNL     1     -13.022   3.115   0.213  1.00  0.00     0.102 A 
HETATM   44  C   UNL     1     -12.159   3.523  -0.802  1.00  0.00     0.132 A 
HETATM   45  C   UNL     1     -11.228   2.637  -1.332  1.00  0.00     0.102 A 
HETATM   46  C   UNL     1     -11.149   1.337  -0.860  1.00  0.00     0.057 A 
BRANCH  43  47
HETATM   47  O   UNL     1     -13.924   4.025   0.695  1.00  0.00    -0.358 OA
HETATM   48  H   UNL     1     -13.804   4.076   1.662  1.00  0.00     0.217 HD
ENDBRANCH  43  47
BRANCH  44  49
HETATM   49  O   UNL     1     -12.216   4.793  -1.304  1.00  0.00    -0.356 OA
HETATM   50  H   UNL     1     -13.162   4.946  -1.498  1.00  0.00     0.218 HD
ENDBRANCH  44  49
BRANCH  45  51
HETATM   51  O   UNL     1     -10.402   3.031  -2.342  1.00  0.00    -0.358 OA
HETATM   52  H   UNL     1      -9.578   2.520  -2.210  1.00  0.00     0.217 HD
ENDBRANCH  45  51
ENDBRANCH  39  41
ENDBRANCH  38  39
ENDBRANCH   3  38
BRANCH   4  53
HETATM   53  O   UNL     1      -9.386  -3.267  -1.925  1.00  0.00    -0.307 OA
BRANCH  53  54
HETATM   54  C   UNL     1      -8.214  -3.768  -1.493  1.00  0.00     0.294 C 
HETATM   55  O   UNL     1      -7.963  -4.268  -0.412  1.00  0.00    -0.259 OA
BRANCH  54  56
HETATM   56  C   UNL     1      -7.194  -3.631  -2.565  1.00  0.00     0.045 A 
HETATM   57  C   UNL     1      -7.479  -2.777  -3.642  1.00  0.00     0.057 A 
HETATM   58  C   UNL     1      -6.558  -2.644  -4.675  1.00  0.00     0.102 A 
HETATM   59  C   UNL     1      -5.378  -3.377  -4.656  1.00  0.00     0.132 A 
HETATM   60  C   UNL     1      -5.104  -4.235  -3.598  1.00  0.00     0.102 A 
HETATM   61  C   UNL     1      -5.998  -4.366  -2.545  1.00  0.00     0.057 A 
BRANCH  58  62
HETATM   62  O   UNL     1      -6.774  -1.803  -5.731  1.00  0.00    -0.358 OA
HETATM   63  H   UNL     1      -6.750  -2.331  -6.548  1.00  0.00     0.217 HD
ENDBRANCH  58  62
BRANCH  59  64
HETATM   64  O   UNL     1      -4.475  -3.275  -5.679  1.00  0.00    -0.356 OA
HETATM   65  H   UNL     1      -4.238  -2.325  -5.697  1.00  0.00     0.218 HD
ENDBRANCH  59  64
BRANCH  60  66
HETATM   66  O   UNL     1      -3.952  -4.967  -3.590  1.00  0.00    -0.358 OA
HETATM   67  H   UNL     1      -3.583  -4.861  -4.491  1.00  0.00     0.217 HD
ENDBRANCH  60  66
ENDBRANCH  54  56
ENDBRANCH  53  54
ENDBRANCH   4  53
BRANCH   2  68
HETATM   68  O   UNL     1     -12.187  -4.763  -0.168  1.00  0.00    -0.307 OA
BRANCH  68  69
HETATM   69  C   UNL     1     -11.489  -5.596   0.641  1.00  0.00     0.294 C 
HETATM   70  O   UNL     1     -10.726  -5.264   1.529  1.00  0.00    -0.259 OA
BRANCH  69  71
HETATM   71  C   UNL     1     -11.724  -7.007   0.252  1.00  0.00     0.045 A 
HETATM   72  C   UNL     1     -10.869  -7.995   0.769  1.00  0.00     0.057 A 
HETATM   73  C   UNL     1     -11.013  -9.310   0.342  1.00  0.00     0.102 A 
HETATM   74  C   UNL     1     -11.988  -9.641  -0.593  1.00  0.00     0.132 A 
HETATM   75  C   UNL     1     -12.829  -8.662  -1.103  1.00  0.00     0.102 A 
HETATM   76  C   UNL     1     -12.709  -7.345  -0.689  1.00  0.00     0.057 A 
BRANCH  73  77
HETATM   77  O   UNL     1     -10.208 -10.315   0.801  1.00  0.00    -0.358 OA
HETATM   78  H   UNL     1     -10.765 -10.987   1.233  1.00  0.00     0.217 HD
ENDBRANCH  73  77
BRANCH  74  79
HETATM   79  O   UNL     1     -12.123 -10.927  -1.037  1.00  0.00    -0.356 OA
HETATM   80  H   UNL     1     -11.582 -10.962  -1.852  1.00  0.00     0.218 HD
ENDBRANCH  74  79
BRANCH  75  81
HETATM   81  O   UNL     1     -13.771  -8.982  -2.038  1.00  0.00    -0.358 OA
HETATM   82  H   UNL     1     -14.330  -8.183  -2.116  1.00  0.00     0.217 HD
ENDBRANCH  75  81
ENDBRANCH  69  71
ENDBRANCH  68  69
ENDBRANCH   2  68
TORSDOF 31
ENDMDL
MODEL 4
REMARK VINA RESULT:      -7.9      1.401      2.476
REMARK  31 active torsions:
REMARK  status: ('A' for Active; 'I' for Inactive)
REMARK    1  A    between atoms: O_2  and  C_34 
REMARK    2  A    between atoms: O_2  and  C_26 
REMARK    3  A    between atoms: O_3  and  C_27 
REMARK    4  A    between atoms: O_3  and  C_35 
REMARK    5  A    between atoms: O_4  and  C_28 
REMARK    6  A    between atoms: O_4  and  C_36 
REMARK    7  A    between atoms: O_5  and  C_32 
REMARK    8  A    between atoms: O_5  and  C_41 
REMARK    9  A    between atoms: O_11  and  C_51 
REMARK   10  A    between atoms: O_12  and  C_52 
REMARK   11  A    between atoms: O_13  and  C_53 
REMARK   12  A    between atoms: O_14  and  C_54 
REMARK   13  A    between atoms: O_15  and  C_55 
REMARK   14  A    between atoms: O_16  and  C_56 
REMARK   15  A    between atoms: O_17  and  C_57 
REMARK   16  A    between atoms: O_18  and  C_58 
REMARK   17  A    between atoms: O_19  and  C_59 
REMARK   18  A    between atoms: O_20  and  C_62 
REMARK   19  A    between atoms: O_21  and  C_63 
REMARK   20  A    between atoms: O_22  and  C_64 
REMARK   21  A    between atoms: O_23  and  C_65 
REMARK   22  A    between atoms: O_24  and  C_66 
REMARK   23  A    between atoms: O_25  and  C_67 
REMARK   24  A    between atoms: C_29  and  C_31 
REMARK   25  A    between atoms: C_30  and  C_32 
REMARK   26  A    between atoms: C_31  and  C_33 
REMARK   27  A    between atoms: C_33  and  C_37 
REMARK   28  A    between atoms: C_34  and  C_38 
REMARK   29  A    between atoms: C_35  and  C_39 
REMARK   30  A    between atoms: C_36  and  C_40 
REMARK   31  A    between atoms: C_41  and  C_44 
ROOT
HETATM    1  O   UNL     1     -12.686  -4.649  -3.475  1.00  0.00    -0.373 OA
HETATM    2  C   UNL     1     -11.057  -5.817  -1.373  1.00  0.00     0.196 C 
HETATM    3  C   UNL     1     -12.239  -6.606  -1.965  1.00  0.00     0.193 C 
HETATM    4  C   UNL     1     -11.076  -4.302  -1.645  1.00  0.00     0.195 C 
HETATM    5  C   UNL     1     -12.775  -6.063  -3.312  1.00  0.00     0.161 C 
HETATM    6  C   UNL     1     -11.512  -3.944  -3.070  1.00  0.00     0.178 C 
ENDROOT
BRANCH   5   7
HETATM    7  C   UNL     1     -12.235  -6.784  -4.554  1.00  0.00     0.118 C 
BRANCH   7   8
HETATM    8  C   UNL     1     -13.266  -6.690  -5.670  1.00  0.00     0.162 C 
HETATM    9  O   UNL     1     -14.175  -7.499  -5.829  1.00  0.00    -0.292 OA
BRANCH   8  10
HETATM   10  C   UNL     1     -13.240  -5.502  -6.545  1.00  0.00     0.015 C 
HETATM   11  C   UNL     1     -11.850  -5.222  -7.702  1.00  0.00     0.054 C 
HETATM   12  C   UNL     1     -11.636  -3.569  -8.418  1.00  0.00     0.102 C 
HETATM   13  C   UNL     1     -12.933  -2.295  -8.227  1.00  0.00     0.132 C 
HETATM   14  C   UNL     1     -14.420  -2.653  -7.246  1.00  0.00     0.102 C 
HETATM   15  C   UNL     1     -14.517  -4.200  -6.303  1.00  0.00     0.054 C 
BRANCH  12  16
HETATM   16  O   UNL     1     -10.508  -3.273  -9.122  1.00  0.00    -0.358 OA
HETATM   17  H   UNL     1     -10.664  -3.508 -10.051  1.00  0.00     0.217 HD
ENDBRANCH  12  16
BRANCH  13  18
HETATM   18  O   UNL     1     -12.785  -1.058  -8.776  1.00  0.00    -0.356 OA
HETATM   19  H   UNL     1     -12.180  -1.204  -9.528  1.00  0.00     0.218 HD
ENDBRANCH  13  18
BRANCH  14  20
HETATM   20  O   UNL     1     -15.341  -1.663  -7.082  1.00  0.00    -0.358 OA
HETATM   21  H   UNL     1     -14.912  -0.976  -6.544  1.00  0.00     0.217 HD
ENDBRANCH  14  20
ENDBRANCH   8  10
ENDBRANCH   7   8
ENDBRANCH   5   7
BRANCH   6  22
HETATM   22  C   UNL     1     -10.319  -4.058  -4.047  1.00  0.00     0.213 C 
BRANCH  22  23
HETATM   23  O   UNL     1      -9.100  -3.481  -3.548  1.00  0.00    -0.315 OA
BRANCH  23  24
HETATM   24  C   UNL     1      -8.117  -2.821  -4.432  1.00  0.00     0.293 C 
HETATM   25  O   UNL     1      -8.859  -1.982  -5.012  1.00  0.00    -0.259 OA
BRANCH  24  26
HETATM   26  C   UNL     1      -6.026  -3.313  -4.580  1.00  0.00     0.045 A 
HETATM   27  C   UNL     1      -5.110  -4.108  -3.620  1.00  0.00     0.057 A 
HETATM   28  C   UNL     1      -3.728  -4.425  -3.722  1.00  0.00     0.102 A 
HETATM   29  C   UNL     1      -2.996  -4.040  -4.811  1.00  0.00     0.132 A 
HETATM   30  C   UNL     1      -3.630  -3.332  -5.791  1.00  0.00     0.102 A 
HETATM   31  C   UNL     1      -5.005  -3.002  -5.692  1.00  0.00     0.057 A 
BRANCH  28  32
HETATM   32  O   UNL     1      -3.074  -5.125  -2.742  1.00  0.00    -0.358 OA
HETATM   33  H   UNL     1      -3.398  -4.830  -1.871  1.00  0.00     0.217 HD
ENDBRANCH  28  32
BRANCH  29  34
HETATM   34  O   UNL     1      -1.673  -4.345  -4.930  1.00  0.00    -0.356 OA
HETATM   35  H   UNL     1      -1.538  -4.464  -5.892  1.00  0.00     0.218 HD
ENDBRANCH  29  34
BRANCH  30  36
HETATM   36  O   UNL     1      -2.929  -2.927  -6.895  1.00  0.00    -0.358 OA
HETATM   37  H   UNL     1      -3.575  -2.425  -7.432  1.00  0.00     0.217 HD
ENDBRANCH  30  36
ENDBRANCH  24  26
ENDBRANCH  23  24
ENDBRANCH  22  23
ENDBRANCH   6  22
BRANCH   3  38
HETATM   38  O   UNL     1     -13.309  -6.519  -0.987  1.00  0.00    -0.307 OA
BRANCH  38  39
HETATM   39  C   UNL     1     -13.141  -7.248   0.141  1.00  0.00     0.294 C 
HETATM   40  O   UNL     1     -13.096  -6.840   1.286  1.00  0.00    -0.259 OA
BRANCH  39  41
HETATM   41  C   UNL     1     -13.316  -8.658  -0.243  1.00  0.00     0.045 A 
HETATM   42  C   UNL     1     -14.265  -9.035  -1.203  1.00  0.00     0.057 A 
HETATM   43  C   UNL     1     -14.476 -10.390  -1.436  1.00  0.00     0.102 A 
HETATM   44  C   UNL     1     -13.771 -11.346  -0.708  1.00  0.00     0.132 A 
HETATM   45  C   UNL     1     -12.828 -10.958   0.236  1.00  0.00     0.102 A 
HETATM   46  C   UNL     1     -12.579  -9.615   0.468  1.00  0.00     0.057 A 
BRANCH  43  47
HETATM   47  O   UNL     1     -15.397 -10.826  -2.350  1.00  0.00    -0.358 OA
HETATM   48  H   UNL     1     -15.804 -10.039  -2.758  1.00  0.00     0.217 HD
ENDBRANCH  43  47
BRANCH  44  49
HETATM   49  O   UNL     1     -13.998 -12.682  -0.898  1.00  0.00    -0.356 OA
HETATM   50  H   UNL     1     -14.556 -12.731  -1.700  1.00  0.00     0.218 HD
ENDBRANCH  44  49
BRANCH  45  51
HETATM   51  O   UNL     1     -12.159 -11.895   0.965  1.00  0.00    -0.358 OA
HETATM   52  H   UNL     1     -11.935 -12.602   0.326  1.00  0.00     0.217 HD
ENDBRANCH  45  51
ENDBRANCH  39  41
ENDBRANCH  38  39
ENDBRANCH   3  38
BRANCH   4  53
HETATM   53  O   UNL     1     -11.725  -3.525  -0.601  1.00  0.00    -0.307 OA
BRANCH  53  54
HETATM   54  C   UNL     1     -11.833  -2.183  -0.612  1.00  0.00     0.294 C 
HETATM   55  O   UNL     1     -11.311  -1.394  -1.378  1.00  0.00    -0.259 OA
BRANCH  54  56
HETATM   56  C   UNL     1     -12.724  -1.750   0.494  1.00  0.00     0.045 A 
HETATM   57  C   UNL     1     -13.563  -2.712   1.081  1.00  0.00     0.057 A 
HETATM   58  C   UNL     1     -14.428  -2.336   2.103  1.00  0.00     0.102 A 
HETATM   59  C   UNL     1     -14.485  -1.011   2.516  1.00  0.00     0.132 A 
HETATM   60  C   UNL     1     -13.666  -0.057   1.924  1.00  0.00     0.102 A 
HETATM   61  C   UNL     1     -12.779  -0.413   0.919  1.00  0.00     0.057 A 
BRANCH  58  62
HETATM   62  O   UNL     1     -15.243  -3.239   2.727  1.00  0.00    -0.358 OA
HETATM   63  H   UNL     1     -15.876  -3.580   2.070  1.00  0.00     0.217 HD
ENDBRANCH  58  62
BRANCH  59  64
HETATM   64  O   UNL     1     -15.350  -0.624   3.502  1.00  0.00    -0.356 OA
HETATM   65  H   UNL     1     -15.909   0.060   3.079  1.00  0.00     0.218 HD
ENDBRANCH  59  64
BRANCH  60  66
HETATM   66  O   UNL     1     -13.736   1.246   2.321  1.00  0.00    -0.358 OA
HETATM   67  H   UNL     1     -12.861   1.434   2.718  1.00  0.00     0.217 HD
ENDBRANCH  60  66
ENDBRANCH  54  56
ENDBRANCH  53  54
ENDBRANCH   4  53
BRANCH   2  68
HETATM   68  O   UNL     1      -9.805  -6.312  -1.912  1.00  0.00    -0.307 OA
BRANCH  68  69
HETATM   69  C   UNL     1      -8.829  -6.566  -1.007  1.00  0.00     0.294 C 
HETATM   70  O   UNL     1      -8.000  -5.774  -0.600  1.00  0.00    -0.259 OA
BRANCH  69  71
HETATM   71  C   UNL     1      -8.853  -7.996  -0.614  1.00  0.00     0.045 A 
HETATM   72  C   UNL     1      -9.319  -8.938  -1.547  1.00  0.00     0.057 A 
HETATM   73  C   UNL     1      -9.438 -10.270  -1.165  1.00  0.00     0.102 A 
HETATM   74  C   UNL     1      -9.108 -10.661   0.128  1.00  0.00     0.132 A 
HETATM   75  C   UNL     1      -8.649  -9.727   1.047  1.00  0.00     0.102 A 
HETATM   76  C   UNL     1      -8.516  -8.395   0.689  1.00  0.00     0.057 A 
BRANCH  73  77
HETATM   77  O   UNL     1      -9.893 -11.233  -2.022  1.00  0.00    -0.358 OA
HETATM   78  H   UNL     1     -10.679 -10.891  -2.484  1.00  0.00     0.217 HD
ENDBRANCH  73  77
BRANCH  74  79
HETATM   79  O   UNL     1      -9.244 -11.964   0.520  1.00  0.00    -0.356 OA
HETATM   80  H   UNL     1      -9.635 -12.414  -0.257  1.00  0.00     0.218 HD
ENDBRANCH  74  79
BRANCH  75  81
HETATM   81  O   UNL     1      -8.347 -10.106   2.322  1.00  0.00    -0.358 OA
HETATM   82  H   UNL     1      -9.090  -9.777   2.866  1.00  0.00     0.217 HD
ENDBRANCH  75  81
ENDBRANCH  69  71
ENDBRANCH  68  69
ENDBRANCH   2  68
TORSDOF 31
ENDMDL
MODEL 5
REMARK VINA RESULT:      -7.9      1.955      3.234
REMARK  31 active torsions:
REMARK  status: ('A' for Active; 'I' for Inactive)
REMARK    1  A    between atoms: O_2  and  C_34 
REMARK    2  A    between atoms: O_2  and  C_26 
REMARK    3  A    between atoms: O_3  and  C_27 
REMARK    4  A    between atoms: O_3  and  C_35 
REMARK    5  A    between atoms: O_4  and  C_28 
REMARK    6  A    between atoms: O_4  and  C_36 
REMARK    7  A    between atoms: O_5  and  C_32 
REMARK    8  A    between atoms: O_5  and  C_41 
REMARK    9  A    between atoms: O_11  and  C_51 
REMARK   10  A    between atoms: O_12  and  C_52 
REMARK   11  A    between atoms: O_13  and  C_53 
REMARK   12  A    between atoms: O_14  and  C_54 
REMARK   13  A    between atoms: O_15  and  C_55 
REMARK   14  A    between atoms: O_16  and  C_56 
REMARK   15  A    between atoms: O_17  and  C_57 
REMARK   16  A    between atoms: O_18  and  C_58 
REMARK   17  A    between atoms: O_19  and  C_59 
REMARK   18  A    between atoms: O_20  and  C_62 
REMARK   19  A    between atoms: O_21  and  C_63 
REMARK   20  A    between atoms: O_22  and  C_64 
REMARK   21  A    between atoms: O_23  and  C_65 
REMARK   22  A    between atoms: O_24  and  C_66 
REMARK   23  A    between atoms: O_25  and  C_67 
REMARK   24  A    between atoms: C_29  and  C_31 
REMARK   25  A    between atoms: C_30  and  C_32 
REMARK   26  A    between atoms: C_31  and  C_33 
REMARK   27  A    between atoms: C_33  and  C_37 
REMARK   28  A    between atoms: C_34  and  C_38 
REMARK   29  A    between atoms: C_35  and  C_39 
REMARK   30  A    between atoms: C_36  and  C_40 
REMARK   31  A    between atoms: C_41  and  C_44 
ROOT
HETATM    1  O   UNL     1     -12.326  -3.528  -4.603  1.00  0.00    -0.373 OA
HETATM    2  C   UNL     1     -11.222  -5.191  -2.493  1.00  0.00     0.196 C 
HETATM    3  C   UNL     1     -12.385  -5.709  -3.359  1.00  0.00     0.193 C 
HETATM    4  C   UNL     1     -11.001  -3.668  -2.533  1.00  0.00     0.195 C 
HETATM    5  C   UNL     1     -12.622  -4.922  -4.670  1.00  0.00     0.161 C 
HETATM    6  C   UNL     1     -11.152  -3.067  -3.935  1.00  0.00     0.178 C 
ENDROOT
BRANCH   5   7
HETATM    7  C   UNL     1     -11.987  -5.548  -5.918  1.00  0.00     0.118 C 
BRANCH   7   8
HETATM    8  C   UNL     1     -12.545  -4.863  -7.157  1.00  0.00     0.162 C 
HETATM    9  O   UNL     1     -13.743  -4.785  -7.413  1.00  0.00    -0.292 OA
BRANCH   8  10
HETATM   10  C   UNL     1     -11.603  -4.155  -8.046  1.00  0.00     0.015 C 
HETATM   11  C   UNL     1     -11.157  -2.408  -7.735  1.00  0.00     0.054 C 
HETATM   12  C   UNL     1     -10.369  -1.463  -9.068  1.00  0.00     0.102 C 
HETATM   13  C   UNL     1      -9.768  -2.302 -10.577  1.00  0.00     0.132 C 
HETATM   14  C   UNL     1     -10.027  -4.088 -10.787  1.00  0.00     0.102 C 
HETATM   15  C   UNL     1     -11.052  -4.989  -9.591  1.00  0.00     0.054 C 
BRANCH  12  16
HETATM   16  O   UNL     1     -10.204  -0.117  -8.941  1.00  0.00    -0.358 OA
HETATM   17  H   UNL     1     -10.942   0.227  -8.413  1.00  0.00     0.217 HD
ENDBRANCH  12  16
BRANCH  13  18
HETATM   18  O   UNL     1      -9.161  -1.600 -11.573  1.00  0.00    -0.356 OA
HETATM   19  H   UNL     1      -8.704  -2.282 -12.099  1.00  0.00     0.218 HD
ENDBRANCH  13  18
BRANCH  14  20
HETATM   20  O   UNL     1      -9.613  -4.670 -11.947  1.00  0.00    -0.358 OA
HETATM   21  H   UNL     1     -10.333  -4.546 -12.588  1.00  0.00     0.217 HD
ENDBRANCH  14  20
ENDBRANCH   8  10
ENDBRANCH   7   8
ENDBRANCH   5   7
BRANCH   6  22
HETATM   22  C   UNL     1      -9.842  -3.231  -4.739  1.00  0.00     0.213 C 
BRANCH  22  23
HETATM   23  O   UNL     1      -8.775  -2.374  -4.298  1.00  0.00    -0.315 OA
BRANCH  23  24
HETATM   24  C   UNL     1      -7.640  -2.010  -5.171  1.00  0.00     0.293 C 
HETATM   25  O   UNL     1      -8.184  -1.140  -5.904  1.00  0.00    -0.259 OA
BRANCH  24  26
HETATM   26  C   UNL     1      -5.665  -2.865  -5.092  1.00  0.00     0.045 A 
HETATM   27  C   UNL     1      -4.983  -3.719  -3.997  1.00  0.00     0.057 A 
HETATM   28  C   UNL     1      -3.676  -4.276  -3.950  1.00  0.00     0.102 A 
HETATM   29  C   UNL     1      -2.805  -4.118  -4.991  1.00  0.00     0.132 A 
HETATM   30  C   UNL     1      -3.224  -3.399  -6.073  1.00  0.00     0.102 A 
HETATM   31  C   UNL     1      -4.522  -2.831  -6.125  1.00  0.00     0.057 A 
BRANCH  28  32
HETATM   32  O   UNL     1      -3.236  -4.991  -2.866  1.00  0.00    -0.358 OA
HETATM   33  H   UNL     1      -2.698  -4.409  -2.298  1.00  0.00     0.217 HD
ENDBRANCH  28  32
BRANCH  29  34
HETATM   34  O   UNL     1      -1.552  -4.655  -4.966  1.00  0.00    -0.356 OA
HETATM   35  H   UNL     1      -1.222  -4.541  -5.881  1.00  0.00     0.218 HD
ENDBRANCH  29  34
BRANCH  30  36
HETATM   36  O   UNL     1      -2.378  -3.217  -7.134  1.00  0.00    -0.358 OA
HETATM   37  H   UNL     1      -1.983  -2.334  -6.992  1.00  0.00     0.217 HD
ENDBRANCH  30  36
ENDBRANCH  24  26
ENDBRANCH  23  24
ENDBRANCH  22  23
ENDBRANCH   6  22
BRANCH   3  38
HETATM   38  O   UNL     1     -13.579  -5.589  -2.539  1.00  0.00    -0.307 OA
BRANCH  38  39
HETATM   39  C   UNL     1     -14.468  -6.605  -2.636  1.00  0.00     0.294 C 
HETATM   40  O   UNL     1     -15.285  -6.793  -3.516  1.00  0.00    -0.259 OA
BRANCH  39  41
HETATM   41  C   UNL     1     -14.070  -7.605  -1.631  1.00  0.00     0.045 A 
HETATM   42  C   UNL     1     -13.560  -7.215  -0.385  1.00  0.00     0.057 A 
HETATM   43  C   UNL     1     -13.083  -8.199   0.477  1.00  0.00     0.102 A 
HETATM   44  C   UNL     1     -13.093  -9.537   0.090  1.00  0.00     0.132 A 
HETATM   45  C   UNL     1     -13.608  -9.909  -1.146  1.00  0.00     0.102 A 
HETATM   46  C   UNL     1     -14.114  -8.953  -2.011  1.00  0.00     0.057 A 
BRANCH  43  47
HETATM   47  O   UNL     1     -12.559  -7.885   1.702  1.00  0.00    -0.358 OA
HETATM   48  H   UNL     1     -12.814  -6.967   1.906  1.00  0.00     0.217 HD
ENDBRANCH  43  47
BRANCH  44  49
HETATM   49  O   UNL     1     -12.589 -10.509   0.911  1.00  0.00    -0.356 OA
HETATM   50  H   UNL     1     -13.100 -10.428   1.741  1.00  0.00     0.218 HD
ENDBRANCH  44  49
BRANCH  45  51
HETATM   51  O   UNL     1     -13.593 -11.216  -1.532  1.00  0.00    -0.358 OA
HETATM   52  H   UNL     1     -13.610 -11.727  -0.697  1.00  0.00     0.217 HD
ENDBRANCH  45  51
ENDBRANCH  39  41
ENDBRANCH  38  39
ENDBRANCH   3  38
BRANCH   4  53
HETATM   53  O   UNL     1     -11.704  -2.943  -1.486  1.00  0.00    -0.307 OA
BRANCH  53  54
HETATM   54  C   UNL     1     -11.585  -1.620  -1.270  1.00  0.00     0.294 C 
HETATM   55  O   UNL     1     -10.935  -0.811  -1.905  1.00  0.00    -0.259 OA
BRANCH  54  56
HETATM   56  C   UNL     1     -12.395  -1.239  -0.085  1.00  0.00     0.045 A 
HETATM   57  C   UNL     1     -13.268  -2.198   0.455  1.00  0.00     0.057 A 
HETATM   58  C   UNL     1     -14.059  -1.867   1.549  1.00  0.00     0.102 A 
HETATM   59  C   UNL     1     -14.011  -0.585   2.082  1.00  0.00     0.132 A 
HETATM   60  C   UNL     1     -13.159   0.368   1.538  1.00  0.00     0.102 A 
HETATM   61  C   UNL     1     -12.343   0.054   0.461  1.00  0.00     0.057 A 
BRANCH  58  62
HETATM   62  O   UNL     1     -14.902  -2.773   2.130  1.00  0.00    -0.358 OA
HETATM   63  H   UNL     1     -14.729  -3.645   1.733  1.00  0.00     0.217 HD
ENDBRANCH  58  62
BRANCH  59  64
HETATM   64  O   UNL     1     -14.804  -0.239   3.142  1.00  0.00    -0.356 OA
HETATM   65  H   UNL     1     -15.648   0.041   2.731  1.00  0.00     0.218 HD
ENDBRANCH  59  64
BRANCH  60  66
HETATM   66  O   UNL     1     -13.126   1.631   2.054  1.00  0.00    -0.358 OA
HETATM   67  H   UNL     1     -12.407   1.611   2.718  1.00  0.00     0.217 HD
ENDBRANCH  60  66
ENDBRANCH  54  56
ENDBRANCH  53  54
ENDBRANCH   4  53
BRANCH   2  68
HETATM   68  O   UNL     1      -9.974  -5.794  -2.918  1.00  0.00    -0.307 OA
BRANCH  68  69
HETATM   69  C   UNL     1      -9.030  -5.944  -1.958  1.00  0.00     0.294 C 
HETATM   70  O   UNL     1      -8.074  -5.214  -1.768  1.00  0.00    -0.259 OA
BRANCH  69  71
HETATM   71  C   UNL     1      -9.273  -7.187  -1.187  1.00  0.00     0.045 A 
HETATM   72  C   UNL     1      -9.040  -7.171   0.198  1.00  0.00     0.057 A 
HETATM   73  C   UNL     1      -9.172  -8.350   0.923  1.00  0.00     0.102 A 
HETATM   74  C   UNL     1      -9.521  -9.533   0.281  1.00  0.00     0.132 A 
HETATM   75  C   UNL     1      -9.749  -9.545  -1.088  1.00  0.00     0.102 A 
HETATM   76  C   UNL     1      -9.630  -8.382  -1.832  1.00  0.00     0.057 A 
BRANCH  73  77
HETATM   77  O   UNL     1      -8.950  -8.403   2.271  1.00  0.00    -0.358 OA
HETATM   78  H   UNL     1      -8.283  -9.089   2.451  1.00  0.00     0.217 HD
ENDBRANCH  73  77
BRANCH  74  79
HETATM   79  O   UNL     1      -9.630 -10.703   0.981  1.00  0.00    -0.356 OA
HETATM   80  H   UNL     1      -9.378 -11.397   0.338  1.00  0.00     0.218 HD
ENDBRANCH  74  79
BRANCH  75  81
HETATM   81  O   UNL     1     -10.070 -10.710  -1.723  1.00  0.00    -0.358 OA
HETATM   82  H   UNL     1     -10.930 -10.533  -2.154  1.00  0.00     0.217 HD
ENDBRANCH  75  81
ENDBRANCH  69  71
ENDBRANCH  68  69
ENDBRANCH   2  68
TORSDOF 31
ENDMDL
MODEL 6
REMARK VINA RESULT:      -7.6      2.295      3.894
REMARK  31 active torsions:
REMARK  status: ('A' for Active; 'I' for Inactive)
REMARK    1  A    between atoms: O_2  and  C_34 
REMARK    2  A    between atoms: O_2  and  C_26 
REMARK    3  A    between atoms: O_3  and  C_27 
REMARK    4  A    between atoms: O_3  and  C_35 
REMARK    5  A    between atoms: O_4  and  C_28 
REMARK    6  A    between atoms: O_4  and  C_36 
REMARK    7  A    between atoms: O_5  and  C_32 
REMARK    8  A    between atoms: O_5  and  C_41 
REMARK    9  A    between atoms: O_11  and  C_51 
REMARK   10  A    between atoms: O_12  and  C_52 
REMARK   11  A    between atoms: O_13  and  C_53 
REMARK   12  A    between atoms: O_14  and  C_54 
REMARK   13  A    between atoms: O_15  and  C_55 
REMARK   14  A    between atoms: O_16  and  C_56 
REMARK   15  A    between atoms: O_17  and  C_57 
REMARK   16  A    between atoms: O_18  and  C_58 
REMARK   17  A    between atoms: O_19  and  C_59 
REMARK   18  A    between atoms: O_20  and  C_62 
REMARK   19  A    between atoms: O_21  and  C_63 
REMARK   20  A    between atoms: O_22  and  C_64 
REMARK   21  A    between atoms: O_23  and  C_65 
REMARK   22  A    between atoms: O_24  and  C_66 
REMARK   23  A    between atoms: O_25  and  C_67 
REMARK   24  A    between atoms: C_29  and  C_31 
REMARK   25  A    between atoms: C_30  and  C_32 
REMARK   26  A    between atoms: C_31  and  C_33 
REMARK   27  A    between atoms: C_33  and  C_37 
REMARK   28  A    between atoms: C_34  and  C_38 
REMARK   29  A    between atoms: C_35  and  C_39 
REMARK   30  A    between atoms: C_36  and  C_40 
REMARK   31  A    between atoms: C_41  and  C_44 
ROOT
HETATM    1  O   UNL     1     -11.969  -2.952  -4.500  1.00  0.00    -0.373 OA
HETATM    2  C   UNL     1     -10.322  -4.458  -2.641  1.00  0.00     0.196 C 
HETATM    3  C   UNL     1     -11.568  -5.107  -3.273  1.00  0.00     0.193 C 
HETATM    4  C   UNL     1     -10.271  -2.922  -2.717  1.00  0.00     0.195 C 
HETATM    5  C   UNL     1     -12.127  -4.369  -4.514  1.00  0.00     0.161 C 
HETATM    6  C   UNL     1     -10.743  -2.363  -4.064  1.00  0.00     0.178 C 
ENDROOT
BRANCH   5   7
HETATM    7  C   UNL     1     -11.677  -4.949  -5.861  1.00  0.00     0.118 C 
BRANCH   7   8
HETATM    8  C   UNL     1     -12.513  -4.331  -6.972  1.00  0.00     0.162 C 
HETATM    9  O   UNL     1     -13.734  -4.216  -6.925  1.00  0.00    -0.292 OA
BRANCH   8  10
HETATM   10  C   UNL     1     -11.809  -3.734  -8.125  1.00  0.00     0.015 C 
HETATM   11  C   UNL     1     -11.237  -4.779  -9.514  1.00  0.00     0.054 C 
HETATM   12  C   UNL     1     -10.014  -4.095 -10.668  1.00  0.00     0.102 C 
HETATM   13  C   UNL     1      -9.582  -2.320 -10.624  1.00  0.00     0.132 C 
HETATM   14  C   UNL     1     -10.320  -1.236  -9.366  1.00  0.00     0.102 C 
HETATM   15  C   UNL     1     -11.328  -1.961  -8.042  1.00  0.00     0.054 C 
BRANCH  12  16
HETATM   16  O   UNL     1      -9.423  -4.905 -11.590  1.00  0.00    -0.358 OA
HETATM   17  H   UNL     1      -8.579  -4.498 -11.848  1.00  0.00     0.217 HD
ENDBRANCH  12  16
BRANCH  13  18
HETATM   18  O   UNL     1      -8.677  -1.799 -11.498  1.00  0.00    -0.356 OA
HETATM   19  H   UNL     1      -9.220  -1.275 -12.117  1.00  0.00     0.218 HD
ENDBRANCH  13  18
BRANCH  14  20
HETATM   20  O   UNL     1      -9.934   0.070  -9.331  1.00  0.00    -0.358 OA
HETATM   21  H   UNL     1      -9.509   0.206  -8.467  1.00  0.00     0.217 HD
ENDBRANCH  14  20
ENDBRANCH   8  10
ENDBRANCH   7   8
ENDBRANCH   5   7
BRANCH   6  22
HETATM   22  C   UNL     1      -9.598  -2.406  -5.101  1.00  0.00     0.213 C 
BRANCH  22  23
HETATM   23  O   UNL     1      -8.353  -1.873  -4.619  1.00  0.00    -0.315 OA
BRANCH  23  24
HETATM   24  C   UNL     1      -7.199  -1.630  -5.508  1.00  0.00     0.293 C 
HETATM   25  O   UNL     1      -7.665  -0.717  -6.244  1.00  0.00    -0.259 OA
BRANCH  24  26
HETATM   26  C   UNL     1      -5.316  -2.672  -5.442  1.00  0.00     0.045 A 
HETATM   27  C   UNL     1      -4.679  -3.526  -4.321  1.00  0.00     0.057 A 
HETATM   28  C   UNL     1      -3.432  -4.208  -4.282  1.00  0.00     0.102 A 
HETATM   29  C   UNL     1      -2.590  -4.197  -5.359  1.00  0.00     0.132 A 
HETATM   30  C   UNL     1      -2.977  -3.502  -6.468  1.00  0.00     0.102 A 
HETATM   31  C   UNL     1      -4.214  -2.811  -6.511  1.00  0.00     0.057 A 
BRANCH  28  32
HETATM   32  O   UNL     1      -3.023  -4.901  -3.172  1.00  0.00    -0.358 OA
HETATM   33  H   UNL     1      -2.410  -4.344  -2.658  1.00  0.00     0.217 HD
ENDBRANCH  28  32
BRANCH  29  34
HETATM   34  O   UNL     1      -1.395  -4.854  -5.342  1.00  0.00    -0.356 OA
HETATM   35  H   UNL     1      -0.755  -4.198  -5.687  1.00  0.00     0.218 HD
ENDBRANCH  29  34
BRANCH  30  36
HETATM   36  O   UNL     1      -2.159  -3.465  -7.564  1.00  0.00    -0.358 OA
HETATM   37  H   UNL     1      -2.123  -4.390  -7.882  1.00  0.00     0.217 HD
ENDBRANCH  30  36
ENDBRANCH  24  26
ENDBRANCH  23  24
ENDBRANCH  22  23
ENDBRANCH   6  22
BRANCH   3  38
HETATM   38  O   UNL     1     -12.592  -5.095  -2.243  1.00  0.00    -0.307 OA
BRANCH  38  39
HETATM   39  C   UNL     1     -13.009  -6.307  -1.809  1.00  0.00     0.294 C 
HETATM   40  O   UNL     1     -13.217  -7.301  -2.478  1.00  0.00    -0.259 OA
BRANCH  39  41
HETATM   41  C   UNL     1     -12.886  -6.292  -0.342  1.00  0.00     0.045 A 
HETATM   42  C   UNL     1     -13.667  -7.137   0.458  1.00  0.00     0.057 A 
HETATM   43  C   UNL     1     -13.602  -6.993   1.841  1.00  0.00     0.102 A 
HETATM   44  C   UNL     1     -12.793  -6.010   2.407  1.00  0.00     0.132 A 
HETATM   45  C   UNL     1     -12.020  -5.183   1.601  1.00  0.00     0.102 A 
HETATM   46  C   UNL     1     -12.045  -5.324   0.223  1.00  0.00     0.057 A 
BRANCH  43  47
HETATM   47  O   UNL     1     -14.348  -7.776   2.679  1.00  0.00    -0.358 OA
HETATM   48  H   UNL     1     -14.681  -8.531   2.160  1.00  0.00     0.217 HD
ENDBRANCH  43  47
BRANCH  44  49
HETATM   49  O   UNL     1     -12.751  -5.830   3.763  1.00  0.00    -0.356 OA
HETATM   50  H   UNL     1     -13.396  -6.472   4.122  1.00  0.00     0.218 HD
ENDBRANCH  44  49
BRANCH  45  51
HETATM   51  O   UNL     1     -11.250  -4.205   2.157  1.00  0.00    -0.358 OA
HETATM   52  H   UNL     1     -11.043  -4.527   3.058  1.00  0.00     0.217 HD
ENDBRANCH  45  51
ENDBRANCH  39  41
ENDBRANCH  38  39
ENDBRANCH   3  38
BRANCH   4  53
HETATM   53  O   UNL     1     -10.835  -2.256  -1.555  1.00  0.00    -0.307 OA
BRANCH  53  54
HETATM   54  C   UNL     1     -11.257  -0.977  -1.545  1.00  0.00     0.294 C 
HETATM   55  O   UNL     1     -11.018  -0.102  -2.355  1.00  0.00    -0.259 OA
BRANCH  54  56
HETATM   56  C   UNL     1     -12.106  -0.747  -0.348  1.00  0.00     0.045 A 
HETATM   57  C   UNL     1     -12.933  -1.796   0.086  1.00  0.00     0.057 A 
HETATM   58  C   UNL     1     -13.759  -1.606   1.189  1.00  0.00     0.102 A 
HETATM   59  C   UNL     1     -13.788  -0.377   1.835  1.00  0.00     0.132 A 
HETATM   60  C   UNL     1     -12.981   0.665   1.395  1.00  0.00     0.102 A 
HETATM   61  C   UNL     1     -12.132   0.492   0.312  1.00  0.00     0.057 A 
BRANCH  58  62
HETATM   62  O   UNL     1     -14.561  -2.603   1.670  1.00  0.00    -0.358 OA
HETATM   63  H   UNL     1     -14.655  -3.278   0.974  1.00  0.00     0.217 HD
ENDBRANCH  58  62
BRANCH  59  64
HETATM   64  O   UNL     1     -14.616  -0.169   2.905  1.00  0.00    -0.356 OA
HETATM   65  H   UNL     1     -15.349   0.369   2.542  1.00  0.00     0.218 HD
ENDBRANCH  59  64
BRANCH  60  66
HETATM   66  O   UNL     1     -13.025   1.877   2.022  1.00  0.00    -0.358 OA
HETATM   67  H   UNL     1     -13.976   2.103   2.063  1.00  0.00     0.217 HD
ENDBRANCH  60  66
ENDBRANCH  54  56
ENDBRANCH  53  54
ENDBRANCH   4  53
BRANCH   2  68
HETATM   68  O   UNL     1      -9.121  -4.939  -3.296  1.00  0.00    -0.307 OA
BRANCH  68  69
HETATM   69  C   UNL     1      -8.180  -5.482  -2.486  1.00  0.00     0.294 C 
HETATM   70  O   UNL     1      -6.984  -5.257  -2.521  1.00  0.00    -0.259 OA
BRANCH  69  71
HETATM   71  C   UNL     1      -8.799  -6.467  -1.567  1.00  0.00     0.045 A 
HETATM   72  C   UNL     1      -8.596  -6.312  -0.185  1.00  0.00     0.057 A 
HETATM   73  C   UNL     1      -9.088  -7.278   0.686  1.00  0.00     0.102 A 
HETATM   74  C   UNL     1      -9.765  -8.388   0.193  1.00  0.00     0.132 A 
HETATM   75  C   UNL     1      -9.962  -8.538  -1.173  1.00  0.00     0.102 A 
HETATM   76  C   UNL     1      -9.486  -7.587  -2.061  1.00  0.00     0.057 A 
BRANCH  73  77
HETATM   77  O   UNL     1      -8.916  -7.190   2.040  1.00  0.00    -0.358 OA
HETATM   78  H   UNL     1      -8.488  -8.007   2.353  1.00  0.00     0.217 HD
ENDBRANCH  73  77
BRANCH  74  79
HETATM   79  O   UNL     1     -10.232  -9.355   1.040  1.00  0.00    -0.356 OA
HETATM   80  H   UNL     1     -10.148  -8.960   1.932  1.00  0.00     0.218 HD
ENDBRANCH  74  79
BRANCH  75  81
HETATM   81  O   UNL     1     -10.606  -9.638  -1.659  1.00  0.00    -0.358 OA
HETATM   82  H   UNL     1      -9.909 -10.164  -2.101  1.00  0.00     0.217 HD
ENDBRANCH  75  81
ENDBRANCH  69  71
ENDBRANCH  68  69
ENDBRANCH   2  68
TORSDOF 31
ENDMDL
MODEL 7
REMARK VINA RESULT:      -7.5      6.457     11.888
REMARK  31 active torsions:
REMARK  status: ('A' for Active; 'I' for Inactive)
REMARK    1  A    between atoms: O_2  and  C_34 
REMARK    2  A    between atoms: O_2  and  C_26 
REMARK    3  A    between atoms: O_3  and  C_27 
REMARK    4  A    between atoms: O_3  and  C_35 
REMARK    5  A    between atoms: O_4  and  C_28 
REMARK    6  A    between atoms: O_4  and  C_36 
REMARK    7  A    between atoms: O_5  and  C_32 
REMARK    8  A    between atoms: O_5  and  C_41 
REMARK    9  A    between atoms: O_11  and  C_51 
REMARK   10  A    between atoms: O_12  and  C_52 
REMARK   11  A    between atoms: O_13  and  C_53 
REMARK   12  A    between atoms: O_14  and  C_54 
REMARK   13  A    between atoms: O_15  and  C_55 
REMARK   14  A    between atoms: O_16  and  C_56 
REMARK   15  A    between atoms: O_17  and  C_57 
REMARK   16  A    between atoms: O_18  and  C_58 
REMARK   17  A    between atoms: O_19  and  C_59 
REMARK   18  A    between atoms: O_20  and  C_62 
REMARK   19  A    between atoms: O_21  and  C_63 
REMARK   20  A    between atoms: O_22  and  C_64 
REMARK   21  A    between atoms: O_23  and  C_65 
REMARK   22  A    between atoms: O_24  and  C_66 
REMARK   23  A    between atoms: O_25  and  C_67 
REMARK   24  A    between atoms: C_29  and  C_31 
REMARK   25  A    between atoms: C_30  and  C_32 
REMARK   26  A    between atoms: C_31  and  C_33 
REMARK   27  A    between atoms: C_33  and  C_37 
REMARK   28  A    between atoms: C_34  and  C_38 
REMARK   29  A    between atoms: C_35  and  C_39 
REMARK   30  A    between atoms: C_36  and  C_40 
REMARK   31  A    between atoms: C_41  and  C_44 
ROOT
HETATM    1  O   UNL     1      -5.679   0.212 -11.519  1.00  0.00    -0.373 OA
HETATM    2  C   UNL     1      -4.114  -0.881  -9.328  1.00  0.00     0.196 C 
HETATM    3  C   UNL     1      -5.642  -1.068  -9.357  1.00  0.00     0.193 C 
HETATM    4  C   UNL     1      -3.571   0.229 -10.247  1.00  0.00     0.195 C 
HETATM    5  C   UNL     1      -6.306  -0.797 -10.729  1.00  0.00     0.161 C 
HETATM    6  C   UNL     1      -4.256   0.276 -11.617  1.00  0.00     0.178 C 
ENDROOT
BRANCH   5   7
HETATM    7  C   UNL     1      -6.573  -2.052 -11.571  1.00  0.00     0.118 C 
BRANCH   7   8
HETATM    8  C   UNL     1      -7.992  -1.991 -12.117  1.00  0.00     0.162 C 
HETATM    9  O   UNL     1      -8.297  -1.429 -13.165  1.00  0.00    -0.292 OA
BRANCH   8  10
HETATM   10  C   UNL     1      -9.045  -2.745 -11.408  1.00  0.00     0.015 C 
HETATM   11  C   UNL     1     -10.015  -1.962 -10.068  1.00  0.00     0.054 C 
HETATM   12  C   UNL     1     -10.964  -3.028  -8.948  1.00  0.00     0.102 C 
HETATM   13  C   UNL     1     -11.188  -4.804  -9.317  1.00  0.00     0.132 C 
HETATM   14  C   UNL     1     -10.392  -5.536 -10.776  1.00  0.00     0.102 C 
HETATM   15  C   UNL     1      -9.221  -4.544 -11.747  1.00  0.00     0.054 C 
BRANCH  12  16
HETATM   16  O   UNL     1     -11.534  -2.501  -7.828  1.00  0.00    -0.358 OA
HETATM   17  H   UNL     1     -11.881  -1.623  -8.054  1.00  0.00     0.217 HD
ENDBRANCH  12  16
BRANCH  13  18
HETATM   18  O   UNL     1     -11.914  -5.604  -8.489  1.00  0.00    -0.356 OA
HETATM   19  H   UNL     1     -12.749  -5.751  -8.972  1.00  0.00     0.218 HD
ENDBRANCH  13  18
BRANCH  14  20
HETATM   20  O   UNL     1     -10.538  -6.873 -10.992  1.00  0.00    -0.358 OA
HETATM   21  H   UNL     1     -11.299  -6.973 -11.588  1.00  0.00     0.217 HD
ENDBRANCH  14  20
ENDBRANCH   8  10
ENDBRANCH   7   8
ENDBRANCH   5   7
BRANCH   6  22
HETATM   22  C   UNL     1      -3.626  -0.761 -12.574  1.00  0.00     0.213 C 
BRANCH  22  23
HETATM   23  O   UNL     1      -2.188  -0.778 -12.552  1.00  0.00    -0.315 OA
BRANCH  23  24
HETATM   24  C   UNL     1      -1.407  -2.013 -12.770  1.00  0.00     0.293 C 
HETATM   25  O   UNL     1      -0.278  -1.523 -13.049  1.00  0.00    -0.259 OA
BRANCH  24  26
HETATM   26  C   UNL     1      -2.166  -4.023 -12.637  1.00  0.00     0.045 A 
HETATM   27  C   UNL     1      -3.573  -4.543 -12.258  1.00  0.00     0.057 A 
HETATM   28  C   UNL     1      -4.066  -5.874 -12.167  1.00  0.00     0.102 A 
HETATM   29  C   UNL     1      -3.267  -6.943 -12.464  1.00  0.00     0.132 A 
HETATM   30  C   UNL     1      -1.978  -6.694 -12.839  1.00  0.00     0.102 A 
HETATM   31  C   UNL     1      -1.475  -5.371 -12.922  1.00  0.00     0.057 A 
BRANCH  28  32
HETATM   32  O   UNL     1      -5.354  -6.141 -11.782  1.00  0.00    -0.358 OA
HETATM   33  H   UNL     1      -5.505  -5.764 -10.895  1.00  0.00     0.217 HD
ENDBRANCH  28  32
BRANCH  29  34
HETATM   34  O   UNL     1      -3.727  -8.224 -12.393  1.00  0.00    -0.356 OA
HETATM   35  H   UNL     1      -3.965  -8.446 -13.316  1.00  0.00     0.218 HD
ENDBRANCH  29  34
BRANCH  30  36
HETATM   36  O   UNL     1      -1.147  -7.739 -13.141  1.00  0.00    -0.358 OA
HETATM   37  H   UNL     1      -0.248  -7.352 -13.147  1.00  0.00     0.217 HD
ENDBRANCH  30  36
ENDBRANCH  24  26
ENDBRANCH  23  24
ENDBRANCH  22  23
ENDBRANCH   6  22
BRANCH   3  38
HETATM   38  O   UNL     1      -6.181  -0.115  -8.401  1.00  0.00    -0.307 OA
BRANCH  38  39
HETATM   39  C   UNL     1      -5.669  -0.180  -7.150  1.00  0.00     0.294 C 
HETATM   40  O   UNL     1      -4.842   0.558  -6.649  1.00  0.00    -0.259 OA
BRANCH  39  41
HETATM   41  C   UNL     1      -6.511  -1.128  -6.402  1.00  0.00     0.045 A 
HETATM   42  C   UNL     1      -7.910  -1.068  -6.476  1.00  0.00     0.057 A 
HETATM   43  C   UNL     1      -8.657  -1.905  -5.653  1.00  0.00     0.102 A 
HETATM   44  C   UNL     1      -8.020  -2.765  -4.761  1.00  0.00     0.132 A 
HETATM   45  C   UNL     1      -6.632  -2.818  -4.704  1.00  0.00     0.102 A 
HETATM   46  C   UNL     1      -5.865  -2.015  -5.531  1.00  0.00     0.057 A 
BRANCH  43  47
HETATM   47  O   UNL     1     -10.026  -1.887  -5.664  1.00  0.00    -0.358 OA
HETATM   48  H   UNL     1     -10.306  -1.100  -6.167  1.00  0.00     0.217 HD
ENDBRANCH  43  47
BRANCH  44  49
HETATM   49  O   UNL     1      -8.743  -3.563  -3.917  1.00  0.00    -0.356 OA
HETATM   50  H   UNL     1      -8.712  -4.452  -4.324  1.00  0.00     0.218 HD
ENDBRANCH  44  49
BRANCH  45  51
HETATM   51  O   UNL     1      -6.012  -3.642  -3.811  1.00  0.00    -0.358 OA
HETATM   52  H   UNL     1      -6.723  -3.948  -3.212  1.00  0.00     0.217 HD
ENDBRANCH  45  51
ENDBRANCH  39  41
ENDBRANCH  38  39
ENDBRANCH   3  38
BRANCH   4  53
HETATM   53  O   UNL     1      -3.437   1.521  -9.593  1.00  0.00    -0.307 OA
BRANCH  53  54
HETATM   54  C   UNL     1      -2.426   2.381  -9.815  1.00  0.00     0.294 C 
HETATM   55  O   UNL     1      -2.489   3.581 -10.007  1.00  0.00    -0.259 OA
BRANCH  54  56
HETATM   56  C   UNL     1      -1.137   1.642  -9.795  1.00  0.00     0.045 A 
HETATM   57  C   UNL     1      -0.683   1.140  -8.565  1.00  0.00     0.057 A 
HETATM   58  C   UNL     1       0.531   0.465  -8.506  1.00  0.00     0.102 A 
HETATM   59  C   UNL     1       1.304   0.319  -9.651  1.00  0.00     0.132 A 
HETATM   60  C   UNL     1       0.862   0.830 -10.864  1.00  0.00     0.102 A 
HETATM   61  C   UNL     1      -0.357   1.487 -10.952  1.00  0.00     0.057 A 
BRANCH  58  62
HETATM   62  O   UNL     1       1.004  -0.070  -7.340  1.00  0.00    -0.358 OA
HETATM   63  H   UNL     1       1.495   0.625  -6.866  1.00  0.00     0.217 HD
ENDBRANCH  58  62
BRANCH  59  64
HETATM   64  O   UNL     1       2.513  -0.321  -9.601  1.00  0.00    -0.356 OA
HETATM   65  H   UNL     1       3.038   0.100 -10.313  1.00  0.00     0.218 HD
ENDBRANCH  59  64
BRANCH  60  66
HETATM   66  O   UNL     1       1.631   0.700 -11.984  1.00  0.00    -0.358 OA
HETATM   67  H   UNL     1       1.123   1.149 -12.690  1.00  0.00     0.217 HD
ENDBRANCH  60  66
ENDBRANCH  54  56
ENDBRANCH  53  54
ENDBRANCH   4  53
BRANCH   2  68
HETATM   68  O   UNL     1      -3.453  -2.106  -9.734  1.00  0.00    -0.307 OA
BRANCH  68  69
HETATM   69  C   UNL     1      -2.279  -2.379  -9.116  1.00  0.00     0.294 C 
HETATM   70  O   UNL     1      -1.175  -2.366  -9.629  1.00  0.00    -0.259 OA
BRANCH  69  71
HETATM   71  C   UNL     1      -2.519  -2.777  -7.708  1.00  0.00     0.045 A 
HETATM   72  C   UNL     1      -1.821  -2.102  -6.694  1.00  0.00     0.057 A 
HETATM   73  C   UNL     1      -1.961  -2.523  -5.376  1.00  0.00     0.102 A 
HETATM   74  C   UNL     1      -2.777  -3.606  -5.069  1.00  0.00     0.132 A 
HETATM   75  C   UNL     1      -3.464  -4.272  -6.075  1.00  0.00     0.102 A 
HETATM   76  C   UNL     1      -3.346  -3.868  -7.395  1.00  0.00     0.057 A 
BRANCH  73  77
HETATM   77  O   UNL     1      -1.302  -1.914  -4.344  1.00  0.00    -0.358 OA
HETATM   78  H   UNL     1      -0.374  -2.211  -4.350  1.00  0.00     0.217 HD
ENDBRANCH  73  77
BRANCH  74  79
HETATM   79  O   UNL     1      -2.903  -4.043  -3.779  1.00  0.00    -0.356 OA
HETATM   80  H   UNL     1      -2.746  -5.009  -3.832  1.00  0.00     0.218 HD
ENDBRANCH  74  79
BRANCH  75  81
HETATM   81  O   UNL     1      -4.247  -5.349  -5.777  1.00  0.00    -0.358 OA
HETATM   82  H   UNL     1      -3.718  -5.880  -5.149  1.00  0.00     0.217 HD
ENDBRANCH  75  81
ENDBRANCH  69  71
ENDBRANCH  68  69
ENDBRANCH   2  68
TORSDOF 31
ENDMDL
MODEL 8
REMARK VINA RESULT:      -7.4      6.354     11.772
REMARK  31 active torsions:
REMARK  status: ('A' for Active; 'I' for Inactive)
REMARK    1  A    between atoms: O_2  and  C_34 
REMARK    2  A    between atoms: O_2  and  C_26 
REMARK    3  A    between atoms: O_3  and  C_27 
REMARK    4  A    between atoms: O_3  and  C_35 
REMARK    5  A    between atoms: O_4  and  C_28 
REMARK    6  A    between atoms: O_4  and  C_36 
REMARK    7  A    between atoms: O_5  and  C_32 
REMARK    8  A    between atoms: O_5  and  C_41 
REMARK    9  A    between atoms: O_11  and  C_51 
REMARK   10  A    between atoms: O_12  and  C_52 
REMARK   11  A    between atoms: O_13  and  C_53 
REMARK   12  A    between atoms: O_14  and  C_54 
REMARK   13  A    between atoms: O_15  and  C_55 
REMARK   14  A    between atoms: O_16  and  C_56 
REMARK   15  A    between atoms: O_17  and  C_57 
REMARK   16  A    between atoms: O_18  and  C_58 
REMARK   17  A    between atoms: O_19  and  C_59 
REMARK   18  A    between atoms: O_20  and  C_62 
REMARK   19  A    between atoms: O_21  and  C_63 
REMARK   20  A    between atoms: O_22  and  C_64 
REMARK   21  A    between atoms: O_23  and  C_65 
REMARK   22  A    between atoms: O_24  and  C_66 
REMARK   23  A    between atoms: O_25  and  C_67 
REMARK   24  A    between atoms: C_29  and  C_31 
REMARK   25  A    between atoms: C_30  and  C_32 
REMARK   26  A    between atoms: C_31  and  C_33 
REMARK   27  A    between atoms: C_33  and  C_37 
REMARK   28  A    between atoms: C_34  and  C_38 
REMARK   29  A    between atoms: C_35  and  C_39 
REMARK   30  A    between atoms: C_36  and  C_40 
REMARK   31  A    between atoms: C_41  and  C_44 
ROOT
HETATM    1  O   UNL     1      -4.099   1.475  -9.387  1.00  0.00    -0.373 OA
HETATM    2  C   UNL     1      -4.467  -1.352  -8.831  1.00  0.00     0.196 C 
HETATM    3  C   UNL     1      -5.687  -0.449  -9.088  1.00  0.00     0.193 C 
HETATM    4  C   UNL     1      -3.165  -0.612  -8.476  1.00  0.00     0.195 C 
HETATM    5  C   UNL     1      -5.361   0.914  -9.746  1.00  0.00     0.161 C 
HETATM    6  C   UNL     1      -2.935   0.652  -9.311  1.00  0.00     0.178 C 
ENDROOT
BRANCH   5   7
HETATM    7  C   UNL     1      -5.556   0.955 -11.266  1.00  0.00     0.118 C 
BRANCH   7   8
HETATM    8  C   UNL     1      -7.046   0.936 -11.577  1.00  0.00     0.162 C 
HETATM    9  O   UNL     1      -7.802   1.877 -11.358  1.00  0.00    -0.292 OA
BRANCH   8  10
HETATM   10  C   UNL     1      -7.595  -0.238 -12.285  1.00  0.00     0.015 C 
HETATM   11  C   UNL     1      -8.148  -1.715 -11.357  1.00  0.00     0.054 C 
HETATM   12  C   UNL     1      -8.391  -3.268 -12.264  1.00  0.00     0.102 C 
HETATM   13  C   UNL     1      -8.372  -3.294 -14.092  1.00  0.00     0.132 C 
HETATM   14  C   UNL     1      -8.031  -1.769 -15.017  1.00  0.00     0.102 C 
HETATM   15  C   UNL     1      -7.517  -0.275 -14.122  1.00  0.00     0.054 C 
BRANCH  12  16
HETATM   16  O   UNL     1      -8.608  -4.427 -11.581  1.00  0.00    -0.358 OA
HETATM   17  H   UNL     1      -7.807  -4.972 -11.653  1.00  0.00     0.217 HD
ENDBRANCH  12  16
BRANCH  13  18
HETATM   18  O   UNL     1      -8.571  -4.454 -14.777  1.00  0.00    -0.356 OA
HETATM   19  H   UNL     1      -8.107  -5.126 -14.244  1.00  0.00     0.218 HD
ENDBRANCH  13  18
BRANCH  14  20
HETATM   20  O   UNL     1      -7.973  -1.836 -16.377  1.00  0.00    -0.358 OA
HETATM   21  H   UNL     1      -8.556  -1.133 -16.710  1.00  0.00     0.217 HD
ENDBRANCH  14  20
ENDBRANCH   8  10
ENDBRANCH   7   8
ENDBRANCH   5   7
BRANCH   6  22
HETATM   22  C   UNL     1      -2.305   0.293 -10.676  1.00  0.00     0.213 C 
BRANCH  22  23
HETATM   23  O   UNL     1      -0.897   0.007 -10.612  1.00  0.00    -0.315 OA
BRANCH  23  24
HETATM   24  C   UNL     1      -0.376  -1.350 -10.350  1.00  0.00     0.293 C 
HETATM   25  O   UNL     1       0.304  -1.137  -9.310  1.00  0.00    -0.259 OA
BRANCH  24  26
HETATM   26  C   UNL     1      -0.755  -3.098 -11.549  1.00  0.00     0.045 A 
HETATM   27  C   UNL     1      -1.071  -3.232 -13.058  1.00  0.00     0.057 A 
HETATM   28  C   UNL     1      -1.325  -4.390 -13.843  1.00  0.00     0.102 A 
HETATM   29  C   UNL     1      -1.285  -5.639 -13.289  1.00  0.00     0.132 A 
HETATM   30  C   UNL     1      -1.006  -5.740 -11.956  1.00  0.00     0.102 A 
HETATM   31  C   UNL     1      -0.761  -4.590 -11.164  1.00  0.00     0.057 A 
BRANCH  28  32
HETATM   32  O   UNL     1      -1.618  -4.305 -15.179  1.00  0.00    -0.358 OA
HETATM   33  H   UNL     1      -2.368  -3.694 -15.302  1.00  0.00     0.217 HD
ENDBRANCH  28  32
BRANCH  29  34
HETATM   34  O   UNL     1      -1.515  -6.760 -14.029  1.00  0.00    -0.356 OA
HETATM   35  H   UNL     1      -1.459  -6.452 -14.957  1.00  0.00     0.218 HD
ENDBRANCH  29  34
BRANCH  30  36
HETATM   36  O   UNL     1      -0.960  -6.973 -11.365  1.00  0.00    -0.358 OA
HETATM   37  H   UNL     1      -0.006  -7.165 -11.257  1.00  0.00     0.217 HD
ENDBRANCH  30  36
ENDBRANCH  24  26
ENDBRANCH  23  24
ENDBRANCH  22  23
ENDBRANCH   6  22
BRANCH   3  38
HETATM   38  O   UNL     1      -6.276  -0.190  -7.785  1.00  0.00    -0.307 OA
BRANCH  38  39
HETATM   39  C   UNL     1      -7.625  -0.087  -7.756  1.00  0.00     0.294 C 
HETATM   40  O   UNL     1      -8.338   0.526  -8.526  1.00  0.00    -0.259 OA
BRANCH  39  41
HETATM   41  C   UNL     1      -8.100  -1.093  -6.791  1.00  0.00     0.045 A 
HETATM   42  C   UNL     1      -9.307  -1.776  -6.994  1.00  0.00     0.057 A 
HETATM   43  C   UNL     1      -9.770  -2.623  -5.991  1.00  0.00     0.102 A 
HETATM   44  C   UNL     1      -9.054  -2.764  -4.804  1.00  0.00     0.132 A 
HETATM   45  C   UNL     1      -7.855  -2.085  -4.620  1.00  0.00     0.102 A 
HETATM   46  C   UNL     1      -7.358  -1.257  -5.614  1.00  0.00     0.057 A 
BRANCH  43  47
HETATM   47  O   UNL     1     -10.948  -3.309  -6.118  1.00  0.00    -0.358 OA
HETATM   48  H   UNL     1     -10.788  -4.226  -5.829  1.00  0.00     0.217 HD
ENDBRANCH  43  47
BRANCH  44  49
HETATM   49  O   UNL     1      -9.518  -3.561  -3.794  1.00  0.00    -0.356 OA
HETATM   50  H   UNL     1      -9.804  -2.940  -3.095  1.00  0.00     0.218 HD
ENDBRANCH  44  49
BRANCH  45  51
HETATM   51  O   UNL     1      -7.170  -2.205  -3.448  1.00  0.00    -0.358 OA
HETATM   52  H   UNL     1      -6.718  -3.071  -3.505  1.00  0.00     0.217 HD
ENDBRANCH  45  51
ENDBRANCH  39  41
ENDBRANCH  38  39
ENDBRANCH   3  38
BRANCH   4  53
HETATM   53  O   UNL     1      -2.957  -0.440  -7.047  1.00  0.00    -0.307 OA
BRANCH  53  54
HETATM   54  C   UNL     1      -1.973  -1.035  -6.348  1.00  0.00     0.294 C 
HETATM   55  O   UNL     1      -0.877  -0.588  -6.064  1.00  0.00    -0.259 OA
BRANCH  54  56
HETATM   56  C   UNL     1      -2.413  -2.392  -5.934  1.00  0.00     0.045 A 
HETATM   57  C   UNL     1      -1.494  -3.448  -6.051  1.00  0.00     0.057 A 
HETATM   58  C   UNL     1      -1.880  -4.736  -5.696  1.00  0.00     0.102 A 
HETATM   59  C   UNL     1      -3.177  -4.980  -5.261  1.00  0.00     0.132 A 
HETATM   60  C   UNL     1      -4.090  -3.938  -5.161  1.00  0.00     0.102 A 
HETATM   61  C   UNL     1      -3.720  -2.641  -5.487  1.00  0.00     0.057 A 
BRANCH  58  62
HETATM   62  O   UNL     1      -1.016  -5.792  -5.762  1.00  0.00    -0.358 OA
HETATM   63  H   UNL     1      -1.164  -6.252  -6.607  1.00  0.00     0.217 HD
ENDBRANCH  58  62
BRANCH  59  64
HETATM   64  O   UNL     1      -3.577  -6.247  -4.933  1.00  0.00    -0.356 OA
HETATM   65  H   UNL     1      -2.741  -6.725  -4.752  1.00  0.00     0.218 HD
ENDBRANCH  59  64
BRANCH  60  66
HETATM   66  O   UNL     1      -5.367  -4.184  -4.749  1.00  0.00    -0.358 OA
HETATM   67  H   UNL     1      -5.901  -3.463  -5.143  1.00  0.00     0.217 HD
ENDBRANCH  60  66
ENDBRANCH  54  56
ENDBRANCH  53  54
ENDBRANCH   4  53
BRANCH   2  68
HETATM   68  O   UNL     1      -4.176  -2.147 -10.009  1.00  0.00    -0.307 OA
BRANCH  68  69
HETATM   69  C   UNL     1      -4.039  -3.479  -9.806  1.00  0.00     0.294 C 
HETATM   70  O   UNL     1      -3.640  -4.016  -8.789  1.00  0.00    -0.259 OA
BRANCH  69  71
HETATM   71  C   UNL     1      -4.378  -4.224 -11.042  1.00  0.00     0.045 A 
HETATM   72  C   UNL     1      -4.348  -5.629 -11.007  1.00  0.00     0.057 A 
HETATM   73  C   UNL     1      -4.571  -6.343 -12.179  1.00  0.00     0.102 A 
HETATM   74  C   UNL     1      -4.812  -5.674 -13.373  1.00  0.00     0.132 A 
HETATM   75  C   UNL     1      -4.839  -4.286 -13.405  1.00  0.00     0.102 A 
HETATM   76  C   UNL     1      -4.626  -3.552 -12.249  1.00  0.00     0.057 A 
BRANCH  73  77
HETATM   77  O   UNL     1      -4.546  -7.710 -12.212  1.00  0.00    -0.358 OA
HETATM   78  H   UNL     1      -3.682  -7.997 -12.558  1.00  0.00     0.217 HD
ENDBRANCH  73  77
BRANCH  74  79
HETATM   79  O   UNL     1      -5.009  -6.367 -14.536  1.00  0.00    -0.356 OA
HETATM   80  H   UNL     1      -5.088  -5.674 -15.223  1.00  0.00     0.218 HD
ENDBRANCH  74  79
BRANCH  75  81
HETATM   81  O   UNL     1      -5.053  -3.628 -14.581  1.00  0.00    -0.358 OA
HETATM   82  H   UNL     1      -4.463  -2.849 -14.545  1.00  0.00     0.217 HD
ENDBRANCH  75  81
ENDBRANCH  69  71
ENDBRANCH  68  69
ENDBRANCH   2  68
TORSDOF 31
ENDMDL
MODEL 9
REMARK VINA RESULT:      -7.4      6.491     11.767
REMARK  31 active torsions:
REMARK  status: ('A' for Active; 'I' for Inactive)
REMARK    1  A    between atoms: O_2  and  C_34 
REMARK    2  A    between atoms: O_2  and  C_26 
REMARK    3  A    between atoms: O_3  and  C_27 
REMARK    4  A    between atoms: O_3  and  C_35 
REMARK    5  A    between atoms: O_4  and  C_28 
REMARK    6  A    between atoms: O_4  and  C_36 
REMARK    7  A    between atoms: O_5  and  C_32 
REMARK    8  A    between atoms: O_5  and  C_41 
REMARK    9  A    between atoms: O_11  and  C_51 
REMARK   10  A    between atoms: O_12  and  C_52 
REMARK   11  A    between atoms: O_13  and  C_53 
REMARK   12  A    between atoms: O_14  and  C_54 
REMARK   13  A    between atoms: O_15  and  C_55 
REMARK   14  A    between atoms: O_16  and  C_56 
REMARK   15  A    between atoms: O_17  and  C_57 
REMARK   16  A    between atoms: O_18  and  C_58 
REMARK   17  A    between atoms: O_19  and  C_59 
REMARK   18  A    between atoms: O_20  and  C_62 
REMARK   19  A    between atoms: O_21  and  C_63 
REMARK   20  A    between atoms: O_22  and  C_64 
REMARK   21  A    between atoms: O_23  and  C_65 
REMARK   22  A    between atoms: O_24  and  C_66 
REMARK   23  A    between atoms: O_25  and  C_67 
REMARK   24  A    between atoms: C_29  and  C_31 
REMARK   25  A    between atoms: C_30  and  C_32 
REMARK   26  A    between atoms: C_31  and  C_33 
REMARK   27  A    between atoms: C_33  and  C_37 
REMARK   28  A    between atoms: C_34  and  C_38 
REMARK   29  A    between atoms: C_35  and  C_39 
REMARK   30  A    between atoms: C_36  and  C_40 
REMARK   31  A    between atoms: C_41  and  C_44 
ROOT
HETATM    1  O   UNL     1      -5.004   0.541 -10.774  1.00  0.00    -0.373 OA
HETATM    2  C   UNL     1      -3.520  -1.060  -8.856  1.00  0.00     0.196 C 
HETATM    3  C   UNL     1      -5.059  -1.029  -8.813  1.00  0.00     0.193 C 
HETATM    4  C   UNL     1      -2.862   0.085  -9.648  1.00  0.00     0.195 C 
HETATM    5  C   UNL     1      -5.736  -0.475 -10.091  1.00  0.00     0.161 C 
HETATM    6  C   UNL     1      -3.592   0.422 -10.952  1.00  0.00     0.178 C 
ENDROOT
BRANCH   5   7
HETATM    7  C   UNL     1      -6.218  -1.547 -11.077  1.00  0.00     0.118 C 
BRANCH   7   8
HETATM    8  C   UNL     1      -7.604  -1.171 -11.581  1.00  0.00     0.162 C 
HETATM    9  O   UNL     1      -7.814  -0.285 -12.404  1.00  0.00    -0.292 OA
BRANCH   8  10
HETATM   10  C   UNL     1      -8.751  -1.991 -11.142  1.00  0.00     0.015 C 
HETATM   11  C   UNL     1     -10.015  -1.300 -10.013  1.00  0.00     0.054 C 
HETATM   12  C   UNL     1     -11.136  -2.445  -9.162  1.00  0.00     0.102 C 
HETATM   13  C   UNL     1     -11.203  -4.210  -9.636  1.00  0.00     0.132 C 
HETATM   14  C   UNL     1     -10.084  -4.849 -10.917  1.00  0.00     0.102 C 
HETATM   15  C   UNL     1      -8.776  -3.778 -11.577  1.00  0.00     0.054 C 
BRANCH  12  16
HETATM   16  O   UNL     1     -11.952  -1.988  -8.172  1.00  0.00    -0.358 OA
HETATM   17  H   UNL     1     -11.977  -2.659  -7.471  1.00  0.00     0.217 HD
ENDBRANCH  12  16
BRANCH  13  18
HETATM   18  O   UNL     1     -12.055  -5.070  -9.012  1.00  0.00    -0.356 OA
HETATM   19  H   UNL     1     -12.794  -5.169  -9.641  1.00  0.00     0.218 HD
ENDBRANCH  13  18
BRANCH  14  20
HETATM   20  O   UNL     1     -10.126  -6.179 -11.207  1.00  0.00    -0.358 OA
HETATM   21  H   UNL     1      -9.479  -6.324 -11.918  1.00  0.00     0.217 HD
ENDBRANCH  14  20
ENDBRANCH   8  10
ENDBRANCH   7   8
ENDBRANCH   5   7
BRANCH   6  22
HETATM   22  C   UNL     1      -3.161  -0.543 -12.080  1.00  0.00     0.213 C 
BRANCH  22  23
HETATM   23  O   UNL     1      -1.742  -0.770 -12.144  1.00  0.00    -0.315 OA
BRANCH  23  24
HETATM   24  C   UNL     1      -1.164  -2.036 -12.640  1.00  0.00     0.293 C 
HETATM   25  O   UNL     1      -0.064  -1.621 -13.097  1.00  0.00    -0.259 OA
BRANCH  24  26
HETATM   26  C   UNL     1      -2.106  -3.970 -12.554  1.00  0.00     0.045 A 
HETATM   27  C   UNL     1      -1.497  -5.389 -12.645  1.00  0.00     0.057 A 
HETATM   28  C   UNL     1      -2.126  -6.664 -12.593  1.00  0.00     0.102 A 
HETATM   29  C   UNL     1      -3.476  -6.775 -12.410  1.00  0.00     0.132 A 
HETATM   30  C   UNL     1      -4.204  -5.626 -12.291  1.00  0.00     0.102 A 
HETATM   31  C   UNL     1      -3.586  -4.351 -12.353  1.00  0.00     0.057 A 
BRANCH  28  32
HETATM   32  O   UNL     1      -1.412  -7.826 -12.721  1.00  0.00    -0.358 OA
HETATM   33  H   UNL     1      -1.060  -7.884 -13.629  1.00  0.00     0.217 HD
ENDBRANCH  28  32
BRANCH  29  34
HETATM   34  O   UNL     1      -4.094  -7.988 -12.346  1.00  0.00    -0.356 OA
HETATM   35  H   UNL     1      -3.472  -8.599 -12.792  1.00  0.00     0.218 HD
ENDBRANCH  29  34
BRANCH  30  36
HETATM   36  O   UNL     1      -5.558  -5.697 -12.110  1.00  0.00    -0.358 OA
HETATM   37  H   UNL     1      -5.782  -4.912 -11.571  1.00  0.00     0.217 HD
ENDBRANCH  30  36
ENDBRANCH  24  26
ENDBRANCH  23  24
ENDBRANCH  22  23
ENDBRANCH   6  22
BRANCH   3  38
HETATM   38  O   UNL     1      -5.411  -0.159  -7.705  1.00  0.00    -0.307 OA
BRANCH  38  39
HETATM   39  C   UNL     1      -6.726   0.141  -7.582  1.00  0.00     0.294 C 
HETATM   40  O   UNL     1      -7.365   0.946  -8.231  1.00  0.00    -0.259 OA
BRANCH  39  41
HETATM   41  C   UNL     1      -7.312  -0.895  -6.715  1.00  0.00     0.045 A 
HETATM   42  C   UNL     1      -8.692  -1.143  -6.715  1.00  0.00     0.057 A 
HETATM   43  C   UNL     1      -9.206  -2.043  -5.787  1.00  0.00     0.102 A 
HETATM   44  C   UNL     1      -8.364  -2.662  -4.866  1.00  0.00     0.132 A 
HETATM   45  C   UNL     1      -6.997  -2.411  -4.883  1.00  0.00     0.102 A 
HETATM   46  C   UNL     1      -6.455  -1.540  -5.814  1.00  0.00     0.057 A 
BRANCH  43  47
HETATM   47  O   UNL     1     -10.545  -2.320  -5.723  1.00  0.00    -0.358 OA
HETATM   48  H   UNL     1     -10.955  -1.661  -5.132  1.00  0.00     0.217 HD
ENDBRANCH  43  47
BRANCH  44  49
HETATM   49  O   UNL     1      -8.863  -3.518  -3.923  1.00  0.00    -0.356 OA
HETATM   50  H   UNL     1      -8.098  -4.060  -3.644  1.00  0.00     0.218 HD
ENDBRANCH  44  49
BRANCH  45  51
HETATM   51  O   UNL     1      -6.179  -2.999  -3.964  1.00  0.00    -0.358 OA
HETATM   52  H   UNL     1      -6.396  -2.563  -3.115  1.00  0.00     0.217 HD
ENDBRANCH  45  51
ENDBRANCH  39  41
ENDBRANCH  38  39
ENDBRANCH   3  38
BRANCH   4  53
HETATM   53  O   UNL     1      -2.514   1.239  -8.834  1.00  0.00    -0.307 OA
BRANCH  53  54
HETATM   54  C   UNL     1      -3.108   2.443  -8.934  1.00  0.00     0.294 C 
HETATM   55  O   UNL     1      -4.200   2.778  -8.516  1.00  0.00    -0.259 OA
BRANCH  54  56
HETATM   56  C   UNL     1      -2.211   3.376  -9.663  1.00  0.00     0.045 A 
HETATM   57  C   UNL     1      -2.712   4.011 -10.811  1.00  0.00     0.057 A 
HETATM   58  C   UNL     1      -1.892   4.872 -11.532  1.00  0.00     0.102 A 
HETATM   59  C   UNL     1      -0.576   5.076 -11.136  1.00  0.00     0.132 A 
HETATM   60  C   UNL     1      -0.076   4.434 -10.010  1.00  0.00     0.102 A 
HETATM   61  C   UNL     1      -0.883   3.589  -9.262  1.00  0.00     0.057 A 
BRANCH  58  62
HETATM   62  O   UNL     1      -2.340   5.538 -12.638  1.00  0.00    -0.358 OA
HETATM   63  H   UNL     1      -2.468   4.888 -13.352  1.00  0.00     0.217 HD
ENDBRANCH  58  62
BRANCH  59  64
HETATM   64  O   UNL     1       0.249   5.900 -11.852  1.00  0.00    -0.356 OA
HETATM   65  H   UNL     1       0.974   6.116 -11.229  1.00  0.00     0.218 HD
ENDBRANCH  59  64
BRANCH  60  66
HETATM   66  O   UNL     1       1.222   4.623  -9.634  1.00  0.00    -0.358 OA
HETATM   67  H   UNL     1       1.175   5.238  -8.873  1.00  0.00     0.217 HD
ENDBRANCH  60  66
ENDBRANCH  54  56
ENDBRANCH  53  54
ENDBRANCH   4  53
BRANCH   2  68
HETATM   68  O   UNL     1      -3.062  -2.293  -9.466  1.00  0.00    -0.307 OA
BRANCH  68  69
HETATM   69  C   UNL     1      -1.989  -2.880  -8.883  1.00  0.00     0.294 C 
HETATM   70  O   UNL     1      -0.945  -3.178  -9.433  1.00  0.00    -0.259 OA
BRANCH  69  71
HETATM   71  C   UNL     1      -2.281  -3.188  -7.463  1.00  0.00     0.045 A 
HETATM   72  C   UNL     1      -3.330  -4.077  -7.173  1.00  0.00     0.057 A 
HETATM   73  C   UNL     1      -3.680  -4.305  -5.846  1.00  0.00     0.102 A 
HETATM   74  C   UNL     1      -3.004  -3.654  -4.821  1.00  0.00     0.132 A 
HETATM   75  C   UNL     1      -1.969  -2.775  -5.111  1.00  0.00     0.102 A 
HETATM   76  C   UNL     1      -1.597  -2.536  -6.425  1.00  0.00     0.057 A 
BRANCH  73  77
HETATM   77  O   UNL     1      -4.697  -5.150  -5.499  1.00  0.00    -0.358 OA
HETATM   78  H   UNL     1      -4.725  -5.220  -4.528  1.00  0.00     0.217 HD
ENDBRANCH  73  77
BRANCH  74  79
HETATM   79  O   UNL     1      -3.357  -3.853  -3.514  1.00  0.00    -0.356 OA
HETATM   80  H   UNL     1      -4.295  -3.575  -3.469  1.00  0.00     0.218 HD
ENDBRANCH  74  79
BRANCH  75  81
HETATM   81  O   UNL     1      -1.321  -2.118  -4.106  1.00  0.00    -0.358 OA
HETATM   82  H   UNL     1      -0.375  -2.335  -4.233  1.00  0.00     0.217 HD
ENDBRANCH  75  81
ENDBRANCH  69  71
ENDBRANCH  68  69
ENDBRANCH   2  68
TORSDOF 31
ENDMDL
