MODEL 1
REMARK VINA RESULT:      -7.9      0.000      0.000
REMARK  6 active torsions:
REMARK  status: ('A' for Active; 'I' for Inactive)
REMARK    1  A    between atoms: O_2  and  C_12 
REMARK    2  A    between atoms: O_4  and  C_16 
REMARK    3  A    between atoms: O_5  and  C_20 
REMARK    4  A    between atoms: C_6  and  C_13 
REMARK    5  A    between atoms: C_11  and  C_14 
REMARK    6  A    between atoms: C_14  and  C_17 
ROOT
HETATM    1  O   UNK     0      -5.353  -4.343  -3.782  0.00  0.00    -0.340 OA
HETATM    2  O   UNK     0      -6.219  -1.305  -6.399  0.00  0.00    -0.292 OA
HETATM    3  C   UNK     0      -6.356  -3.364  -3.465  0.00  0.00     0.169 C 
HETATM    4  C   UNK     0      -7.021  -2.831  -4.733  0.00  0.00     0.121 C 
HETATM    5  C   UNK     0      -4.625  -2.823  -5.545  0.00  0.00     0.077 A 
HETATM    6  C   UNK     0      -4.400  -3.869  -4.645  0.00  0.00     0.089 A 
HETATM    7  C   UNK     0      -5.970  -2.216  -5.618  0.00  0.00     0.167 C 
HETATM    8  C   UNK     0      -2.358  -3.015  -6.348  0.00  0.00     0.014 A 
HETATM    9  C   UNK     0      -3.604  -2.389  -6.394  0.00  0.00     0.091 A 
HETATM   10  C   UNK     0      -3.157  -4.505  -4.619  0.00  0.00     0.075 A 
HETATM   11  C   UNK     0      -2.136  -4.073  -5.466  0.00  0.00     0.077 A 
ENDROOT
BRANCH   3  12
HETATM   12  C   UNK     0      -7.372  -4.002  -2.541  0.00  0.00    -0.029 A 
HETATM   13  C   UNK     0      -8.676  -3.510  -2.494  0.00  0.00     0.010 A 
HETATM   14  C   UNK     0      -9.613  -4.097  -1.644  0.00  0.00     0.001 A 
HETATM   15  C   UNK     0      -9.245  -5.177  -0.840  0.00  0.00     0.000 A 
HETATM   16  C   UNK     0      -7.940  -5.668  -0.887  0.00  0.00     0.001 A 
HETATM   17  C   UNK     0      -7.004  -5.080  -1.738  0.00  0.00     0.010 A 
ENDBRANCH   3  12
BRANCH   9  18
HETATM   18  O   UNK     0      -3.788  -1.369  -7.280  0.00  0.00    -0.359 OA
HETATM   19  H   UNK     0      -4.483  -1.584  -7.920  0.00  0.00     0.217 HD
ENDBRANCH   9  18
BRANCH  11  20
HETATM   20  O   UNK     0      -0.926  -4.698  -5.418  0.00  0.00    -0.360 OA
HETATM   21  H   UNK     0      -1.005  -5.657  -5.518  0.00  0.00     0.217 HD
ENDBRANCH  11  20
BRANCH   8  22
HETATM   22  C   UNK     0      -1.255  -2.559  -7.251  0.00  0.00     0.085 C 
BRANCH  22  23
HETATM   23  C   UNK     0      -1.271  -3.217  -8.614  0.00  0.00    -0.021 A 
HETATM   24  C   UNK     0      -0.771  -2.541  -9.715  0.00  0.00     0.072 A 
HETATM   25  C   UNK     0      -0.793  -3.162 -10.963  0.00  0.00     0.037 A 
HETATM   26  C   UNK     0      -1.314  -4.448 -11.093  0.00  0.00     0.003 A 
HETATM   27  C   UNK     0      -1.813  -5.115  -9.975  0.00  0.00     0.001 A 
HETATM   28  C   UNK     0      -1.791  -4.495  -8.726  0.00  0.00     0.010 A 
BRANCH  24  29
HETATM   29  O   UNK     0      -0.259  -1.283  -9.604  0.00  0.00    -0.360 OA
HETATM   30  H   UNK     0       0.647  -1.340  -9.255  0.00  0.00     0.217 HD
ENDBRANCH  24  29
ENDBRANCH  22  23
ENDBRANCH   8  22
TORSDOF 6
ENDMDL
MODEL 2
REMARK VINA RESULT:      -7.8      1.299      2.713
REMARK  6 active torsions:
REMARK  status: ('A' for Active; 'I' for Inactive)
REMARK    1  A    between atoms: O_2  and  C_12 
REMARK    2  A    between atoms: O_4  and  C_16 
REMARK    3  A    between atoms: O_5  and  C_20 
REMARK    4  A    between atoms: C_6  and  C_13 
REMARK    5  A    between atoms: C_11  and  C_14 
REMARK    6  A    between atoms: C_14  and  C_17 
ROOT
HETATM    1  O   UNK     0      -6.062  -2.180  -5.327  0.00  0.00    -0.340 OA
HETATM    2  O   UNK     0      -3.232  -4.705  -3.764  0.00  0.00    -0.292 OA
HETATM    3  C   UNK     0      -6.449  -3.327  -4.554  0.00  0.00     0.169 C 
HETATM    4  C   UNK     0      -5.382  -3.673  -3.516  0.00  0.00     0.121 C 
HETATM    5  C   UNK     0      -3.849  -3.194  -5.470  0.00  0.00     0.077 A 
HETATM    6  C   UNK     0      -4.846  -2.335  -5.940  0.00  0.00     0.089 A 
HETATM    7  C   UNK     0      -4.080  -3.948  -4.221  0.00  0.00     0.167 C 
HETATM    8  C   UNK     0      -2.413  -2.541  -7.296  0.00  0.00     0.014 A 
HETATM    9  C   UNK     0      -2.633  -3.305  -6.150  0.00  0.00     0.091 A 
HETATM   10  C   UNK     0      -4.612  -1.558  -7.076  0.00  0.00     0.075 A 
HETATM   11  C   UNK     0      -3.398  -1.666  -7.756  0.00  0.00     0.077 A 
ENDROOT
BRANCH   3  12
HETATM   12  C   UNK     0      -7.779  -3.034  -3.894  0.00  0.00    -0.029 A 
HETATM   13  C   UNK     0      -8.447  -4.039  -3.195  0.00  0.00     0.010 A 
HETATM   14  C   UNK     0      -9.672  -3.770  -2.587  0.00  0.00     0.001 A 
HETATM   15  C   UNK     0     -10.231  -2.495  -2.678  0.00  0.00     0.000 A 
HETATM   16  C   UNK     0      -9.563  -1.489  -3.378  0.00  0.00     0.001 A 
HETATM   17  C   UNK     0      -8.337  -1.760  -3.986  0.00  0.00     0.010 A 
ENDBRANCH   3  12
BRANCH   9  18
HETATM   18  O   UNK     0      -1.641  -4.138  -5.722  0.00  0.00    -0.359 OA
HETATM   19  H   UNK     0      -1.097  -3.711  -5.043  0.00  0.00     0.217 HD
ENDBRANCH   9  18
BRANCH  11  20
HETATM   20  O   UNK     0      -3.193  -0.908  -8.870  0.00  0.00    -0.360 OA
HETATM   21  H   UNK     0      -3.413   0.022  -8.725  0.00  0.00     0.217 HD
ENDBRANCH  11  20
BRANCH   8  22
HETATM   22  C   UNK     0      -1.117  -2.651  -8.035  0.00  0.00     0.085 C 
BRANCH  22  23
HETATM   23  C   UNK     0      -1.210  -3.452  -9.316  0.00  0.00    -0.021 A 
HETATM   24  C   UNK     0      -0.895  -2.860 -10.528  0.00  0.00     0.072 A 
HETATM   25  C   UNK     0      -0.987  -3.613 -11.698  0.00  0.00     0.037 A 
HETATM   26  C   UNK     0      -1.392  -4.946 -11.640  0.00  0.00     0.003 A 
HETATM   27  C   UNK     0      -1.706  -5.527 -10.413  0.00  0.00     0.001 A 
HETATM   28  C   UNK     0      -1.614  -4.774  -9.241  0.00  0.00     0.010 A 
BRANCH  24  29
HETATM   29  O   UNK     0      -0.498  -1.559 -10.601  0.00  0.00    -0.360 OA
HETATM   30  H   UNK     0       0.091  -1.365  -9.852  0.00  0.00     0.217 HD
ENDBRANCH  24  29
ENDBRANCH  22  23
ENDBRANCH   8  22
TORSDOF 6
ENDMDL
MODEL 3
REMARK VINA RESULT:      -7.7      5.760     10.100
REMARK  6 active torsions:
REMARK  status: ('A' for Active; 'I' for Inactive)
REMARK    1  A    between atoms: O_2  and  C_12 
REMARK    2  A    between atoms: O_4  and  C_16 
REMARK    3  A    between atoms: O_5  and  C_20 
REMARK    4  A    between atoms: C_6  and  C_13 
REMARK    5  A    between atoms: C_11  and  C_14 
REMARK    6  A    between atoms: C_14  and  C_17 
ROOT
HETATM    1  O   UNK     0      -9.168  -5.301  -3.280  0.00  0.00    -0.340 OA
HETATM    2  O   UNK     0      -7.569  -4.387   0.386  0.00  0.00    -0.292 OA
HETATM    3  C   UNK     0      -8.997  -3.933  -2.874  0.00  0.00     0.169 C 
HETATM    4  C   UNK     0      -7.809  -3.789  -1.924  0.00  0.00     0.121 C 
HETATM    5  C   UNK     0      -8.808  -5.895  -0.942  0.00  0.00     0.077 A 
HETATM    6  C   UNK     0      -9.311  -6.158  -2.219  0.00  0.00     0.089 A 
HETATM    7  C   UNK     0      -8.038  -4.655  -0.714  0.00  0.00     0.167 C 
HETATM    8  C   UNK     0      -9.676  -8.005  -0.158  0.00  0.00     0.014 A 
HETATM    9  C   UNK     0      -8.995  -6.814   0.094  0.00  0.00     0.091 A 
HETATM   10  C   UNK     0      -9.973  -7.361  -2.469  0.00  0.00     0.075 A 
HETATM   11  C   UNK     0     -10.160  -8.281  -1.437  0.00  0.00     0.077 A 
ENDROOT
BRANCH   3  12
HETATM   12  C   UNK     0      -8.812  -3.085  -4.114  0.00  0.00    -0.029 A 
HETATM   13  C   UNK     0      -7.654  -2.324  -4.271  0.00  0.00     0.010 A 
HETATM   14  C   UNK     0      -7.483  -1.543  -5.413  0.00  0.00     0.001 A 
HETATM   15  C   UNK     0      -8.470  -1.523  -6.399  0.00  0.00     0.000 A 
HETATM   16  C   UNK     0      -9.628  -2.285  -6.242  0.00  0.00     0.001 A 
HETATM   17  C   UNK     0      -9.798  -3.066  -5.099  0.00  0.00     0.010 A 
ENDBRANCH   3  12
BRANCH   9  18
HETATM   18  O   UNK     0      -8.523  -6.587   1.353  0.00  0.00    -0.359 OA
HETATM   19  H   UNK     0      -9.019  -5.877   1.788  0.00  0.00     0.217 HD
ENDBRANCH   9  18
BRANCH  11  20
HETATM   20  O   UNK     0     -10.820  -9.444  -1.698  0.00  0.00    -0.360 OA
HETATM   21  H   UNK     0     -10.227 -10.138  -2.017  0.00  0.00     0.217 HD
ENDBRANCH  11  20
BRANCH   8  22
HETATM   22  C   UNK     0      -9.885  -8.998   0.942  0.00  0.00     0.085 C 
BRANCH  22  23
HETATM   23  C   UNK     0      -8.710  -9.929   1.156  0.00  0.00    -0.021 A 
HETATM   24  C   UNK     0      -7.966  -9.849   2.321  0.00  0.00     0.072 A 
HETATM   25  C   UNK     0      -6.887 -10.715   2.501  0.00  0.00     0.037 A 
HETATM   26  C   UNK     0      -6.568 -11.646   1.513  0.00  0.00     0.003 A 
HETATM   27  C   UNK     0      -7.328 -11.714   0.346  0.00  0.00     0.001 A 
HETATM   28  C   UNK     0      -8.408 -10.848   0.166  0.00  0.00     0.010 A 
BRANCH  24  29
HETATM   29  O   UNK     0      -8.264  -8.944   3.294  0.00  0.00    -0.360 OA
HETATM   30  H   UNK     0      -7.451  -8.478   3.554  0.00  0.00     0.217 HD
ENDBRANCH  24  29
ENDBRANCH  22  23
ENDBRANCH   8  22
TORSDOF 6
ENDMDL
MODEL 4
REMARK VINA RESULT:      -7.6      3.335      9.528
REMARK  6 active torsions:
REMARK  status: ('A' for Active; 'I' for Inactive)
REMARK    1  A    between atoms: O_2  and  C_12 
REMARK    2  A    between atoms: O_4  and  C_16 
REMARK    3  A    between atoms: O_5  and  C_20 
REMARK    4  A    between atoms: C_6  and  C_13 
REMARK    5  A    between atoms: C_11  and  C_14 
REMARK    6  A    between atoms: C_14  and  C_17 
ROOT
HETATM    1  O   UNK     0      -6.611  -3.494  -4.852  0.00  0.00    -0.340 OA
HETATM    2  O   UNK     0      -7.096  -4.547  -0.917  0.00  0.00    -0.292 OA
HETATM    3  C   UNK     0      -5.493  -3.497  -3.950  0.00  0.00     0.169 C 
HETATM    4  C   UNK     0      -5.679  -4.543  -2.852  0.00  0.00     0.121 C 
HETATM    5  C   UNK     0      -8.031  -3.612  -2.873  0.00  0.00     0.077 A 
HETATM    6  C   UNK     0      -7.809  -3.294  -4.215  0.00  0.00     0.089 A 
HETATM    7  C   UNK     0      -6.944  -4.240  -2.094  0.00  0.00     0.167 C 
HETATM    8  C   UNK     0     -10.308  -2.836  -3.058  0.00  0.00     0.014 A 
HETATM    9  C   UNK     0      -9.278  -3.378  -2.288  0.00  0.00     0.091 A 
HETATM   10  C   UNK     0      -8.849  -2.772  -4.986  0.00  0.00     0.075 A 
HETATM   11  C   UNK     0     -10.096  -2.538  -4.405  0.00  0.00     0.077 A 
ENDROOT
BRANCH   3  12
HETATM   12  C   UNK     0      -4.234  -3.761  -4.749  0.00  0.00    -0.029 A 
HETATM   13  C   UNK     0      -3.062  -4.142  -4.096  0.00  0.00     0.010 A 
HETATM   14  C   UNK     0      -1.902  -4.386  -4.831  0.00  0.00     0.001 A 
HETATM   15  C   UNK     0      -1.915  -4.248  -6.220  0.00  0.00     0.000 A 
HETATM   16  C   UNK     0      -3.088  -3.867  -6.872  0.00  0.00     0.001 A 
HETATM   17  C   UNK     0      -4.247  -3.623  -6.136  0.00  0.00     0.010 A 
ENDBRANCH   3  12
BRANCH   9  18
HETATM   18  O   UNK     0      -9.528  -3.670  -0.980  0.00  0.00    -0.359 OA
HETATM   19  H   UNK     0     -10.013  -4.505  -0.896  0.00  0.00     0.217 HD
ENDBRANCH   9  18
BRANCH  11  20
HETATM   20  O   UNK     0     -11.096  -2.016  -5.169  0.00  0.00    -0.360 OA
HETATM   21  H   UNK     0     -11.761  -2.678  -5.404  0.00  0.00     0.217 HD
ENDBRANCH  11  20
BRANCH   8  22
HETATM   22  C   UNK     0     -11.648  -2.578  -2.445  0.00  0.00     0.085 C 
BRANCH  22  23
HETATM   23  C   UNK     0     -11.710  -1.308  -1.624  0.00  0.00    -0.021 A 
HETATM   24  C   UNK     0     -11.993  -1.371  -0.270  0.00  0.00     0.072 A 
HETATM   25  C   UNK     0     -12.046  -0.190   0.471  0.00  0.00     0.037 A 
HETATM   26  C   UNK     0     -11.815   1.035  -0.152  0.00  0.00     0.003 A 
HETATM   27  C   UNK     0     -11.530   1.082  -1.516  0.00  0.00     0.001 A 
HETATM   28  C   UNK     0     -11.477  -0.099  -2.258  0.00  0.00     0.010 A 
BRANCH  24  29
HETATM   29  O   UNK     0     -12.222  -2.560   0.354  0.00  0.00    -0.360 OA
HETATM   30  H   UNK     0     -11.469  -2.763   0.936  0.00  0.00     0.217 HD
ENDBRANCH  24  29
ENDBRANCH  22  23
ENDBRANCH   8  22
TORSDOF 6
ENDMDL
MODEL 5
REMARK VINA RESULT:      -7.6      1.479      8.419
REMARK  6 active torsions:
REMARK  status: ('A' for Active; 'I' for Inactive)
REMARK    1  A    between atoms: O_2  and  C_12 
REMARK    2  A    between atoms: O_4  and  C_16 
REMARK    3  A    between atoms: O_5  and  C_20 
REMARK    4  A    between atoms: C_6  and  C_13 
REMARK    5  A    between atoms: C_11  and  C_14 
REMARK    6  A    between atoms: C_14  and  C_17 
ROOT
HETATM    1  O   UNK     0      -3.940  -2.675  -7.184  0.00  0.00    -0.340 OA
HETATM    2  O   UNK     0      -3.155  -5.500  -4.315  0.00  0.00    -0.292 OA
HETATM    3  C   UNK     0      -2.596  -3.123  -6.943  0.00  0.00     0.169 C 
HETATM    4  C   UNK     0      -2.582  -4.568  -6.449  0.00  0.00     0.121 C 
HETATM    5  C   UNK     0      -4.524  -3.728  -5.063  0.00  0.00     0.077 A 
HETATM    6  C   UNK     0      -4.749  -2.801  -6.085  0.00  0.00     0.089 A 
HETATM    7  C   UNK     0      -3.386  -4.662  -5.179  0.00  0.00     0.167 C 
HETATM    8  C   UNK     0      -6.492  -2.943  -3.908  0.00  0.00     0.014 A 
HETATM    9  C   UNK     0      -5.390  -3.798  -3.969  0.00  0.00     0.091 A 
HETATM   10  C   UNK     0      -5.865  -1.964  -6.028  0.00  0.00     0.075 A 
HETATM   11  C   UNK     0      -6.731  -2.032  -4.936  0.00  0.00     0.077 A 
ENDROOT
BRANCH   3  12
HETATM   12  C   UNK     0      -1.805  -2.975  -8.226  0.00  0.00    -0.029 A 
HETATM   13  C   UNK     0      -1.145  -1.778  -8.503  0.00  0.00     0.010 A 
HETATM   14  C   UNK     0      -0.416  -1.642  -9.684  0.00  0.00     0.001 A 
HETATM   15  C   UNK     0      -0.346  -2.703 -10.587  0.00  0.00     0.000 A 
HETATM   16  C   UNK     0      -1.007  -3.901 -10.309  0.00  0.00     0.001 A 
HETATM   17  C   UNK     0      -1.736  -4.036  -9.128  0.00  0.00     0.010 A 
ENDBRANCH   3  12
BRANCH   9  18
HETATM   18  O   UNK     0      -5.197  -4.685  -2.952  0.00  0.00    -0.359 OA
HETATM   19  H   UNK     0      -4.361  -4.513  -2.493  0.00  0.00     0.217 HD
ENDBRANCH   9  18
BRANCH  11  20
HETATM   20  O   UNK     0      -7.808  -1.198  -4.892  0.00  0.00    -0.360 OA
HETATM   21  H   UNK     0      -8.596  -1.597  -5.286  0.00  0.00     0.217 HD
ENDBRANCH  11  20
BRANCH   8  22
HETATM   22  C   UNK     0      -7.426  -3.006  -2.741  0.00  0.00     0.085 C 
BRANCH  22  23
HETATM   23  C   UNK     0      -8.504  -4.060  -2.878  0.00  0.00    -0.021 A 
HETATM   24  C   UNK     0      -8.388  -5.262  -2.200  0.00  0.00     0.072 A 
HETATM   25  C   UNK     0      -9.391  -6.221  -2.338  0.00  0.00     0.037 A 
HETATM   26  C   UNK     0     -10.494  -5.965  -3.151  0.00  0.00     0.003 A 
HETATM   27  C   UNK     0     -10.596  -4.750  -3.827  0.00  0.00     0.001 A 
HETATM   28  C   UNK     0      -9.593  -3.790  -3.688  0.00  0.00     0.010 A 
BRANCH  24  29
HETATM   29  O   UNK     0      -7.316  -5.527  -1.402  0.00  0.00    -0.360 OA
HETATM   30  H   UNK     0      -6.876  -4.690  -1.174  0.00  0.00     0.217 HD
ENDBRANCH  24  29
ENDBRANCH  22  23
ENDBRANCH   8  22
TORSDOF 6
ENDMDL
MODEL 6
REMARK VINA RESULT:      -7.5      1.735      3.442
REMARK  6 active torsions:
REMARK  status: ('A' for Active; 'I' for Inactive)
REMARK    1  A    between atoms: O_2  and  C_12 
REMARK    2  A    between atoms: O_4  and  C_16 
REMARK    3  A    between atoms: O_5  and  C_20 
REMARK    4  A    between atoms: C_6  and  C_13 
REMARK    5  A    between atoms: C_11  and  C_14 
REMARK    6  A    between atoms: C_14  and  C_17 
ROOT
HETATM    1  O   UNK     0      -6.771  -2.246  -4.720  0.00  0.00    -0.340 OA
HETATM    2  O   UNK     0      -4.160  -4.946  -3.072  0.00  0.00    -0.292 OA
HETATM    3  C   UNK     0      -7.250  -3.321  -3.897  0.00  0.00     0.169 C 
HETATM    4  C   UNK     0      -6.207  -3.717  -2.853  0.00  0.00     0.121 C 
HETATM    5  C   UNK     0      -4.658  -3.459  -4.836  0.00  0.00     0.077 A 
HETATM    6  C   UNK     0      -5.580  -2.535  -5.335  0.00  0.00     0.089 A 
HETATM    7  C   UNK     0      -4.943  -4.137  -3.555  0.00  0.00     0.167 C 
HETATM    8  C   UNK     0      -3.191  -3.013  -6.699  0.00  0.00     0.014 A 
HETATM    9  C   UNK     0      -3.465  -3.706  -5.519  0.00  0.00     0.091 A 
HETATM   10  C   UNK     0      -5.291  -1.829  -6.505  0.00  0.00     0.075 A 
HETATM   11  C   UNK     0      -4.099  -2.073  -7.188  0.00  0.00     0.077 A 
ENDROOT
BRANCH   3  12
HETATM   12  C   UNK     0      -8.542  -2.883  -3.241  0.00  0.00    -0.029 A 
HETATM   13  C   UNK     0      -9.210  -3.747  -2.373  0.00  0.00     0.010 A 
HETATM   14  C   UNK     0     -10.400  -3.343  -1.768  0.00  0.00     0.001 A 
HETATM   15  C   UNK     0     -10.922  -2.077  -2.031  0.00  0.00     0.000 A 
HETATM   16  C   UNK     0     -10.253  -1.213  -2.899  0.00  0.00     0.001 A 
HETATM   17  C   UNK     0      -9.063  -1.617  -3.504  0.00  0.00     0.010 A 
ENDBRANCH   3  12
BRANCH   9  18
HETATM   18  O   UNK     0      -2.547  -4.605  -5.064  0.00  0.00    -0.359 OA
HETATM   19  H   UNK     0      -2.308  -4.424  -4.142  0.00  0.00     0.217 HD
ENDBRANCH   9  18
BRANCH  11  20
HETATM   20  O   UNK     0      -3.839  -1.384  -8.334  0.00  0.00    -0.360 OA
HETATM   21  H   UNK     0      -4.608  -0.884  -8.643  0.00  0.00     0.217 HD
ENDBRANCH  11  20
BRANCH   8  22
HETATM   22  C   UNK     0      -1.917  -3.269  -7.441  0.00  0.00     0.085 C 
BRANCH  22  23
HETATM   23  C   UNK     0      -0.864  -2.202  -7.232  0.00  0.00    -0.021 A 
HETATM   24  C   UNK     0      -0.489  -1.383  -8.284  0.00  0.00     0.072 A 
HETATM   25  C   UNK     0       0.484  -0.406  -8.074  0.00  0.00     0.037 A 
HETATM   26  C   UNK     0       1.066  -0.261  -6.815  0.00  0.00     0.003 A 
HETATM   27  C   UNK     0       0.677  -1.093  -5.766  0.00  0.00     0.001 A 
HETATM   28  C   UNK     0      -0.296  -2.071  -5.976  0.00  0.00     0.010 A 
BRANCH  24  29
HETATM   29  O   UNK     0      -1.047  -1.513  -9.520  0.00  0.00    -0.360 OA
HETATM   30  H   UNK     0      -0.851  -2.401  -9.865  0.00  0.00     0.217 HD
ENDBRANCH  24  29
ENDBRANCH  22  23
ENDBRANCH   8  22
TORSDOF 6
ENDMDL
MODEL 7
REMARK VINA RESULT:      -7.4      3.216      9.273
REMARK  6 active torsions:
REMARK  status: ('A' for Active; 'I' for Inactive)
REMARK    1  A    between atoms: O_2  and  C_12 
REMARK    2  A    between atoms: O_4  and  C_16 
REMARK    3  A    between atoms: O_5  and  C_20 
REMARK    4  A    between atoms: C_6  and  C_13 
REMARK    5  A    between atoms: C_11  and  C_14 
REMARK    6  A    between atoms: C_14  and  C_17 
ROOT
HETATM    1  O   UNK     0      -5.980  -3.552  -3.782  0.00  0.00    -0.340 OA
HETATM    2  O   UNK     0      -8.188  -1.194  -6.310  0.00  0.00    -0.292 OA
HETATM    3  C   UNK     0      -5.686  -3.507  -5.188  0.00  0.00     0.169 C 
HETATM    4  C   UNK     0      -6.052  -2.148  -5.780  0.00  0.00     0.121 C 
HETATM    5  C   UNK     0      -8.099  -2.478  -4.331  0.00  0.00     0.077 A 
HETATM    6  C   UNK     0      -7.289  -3.258  -3.501  0.00  0.00     0.089 A 
HETATM    7  C   UNK     0      -7.520  -1.893  -5.557  0.00  0.00     0.167 C 
HETATM    8  C   UNK     0      -9.939  -2.738  -2.791  0.00  0.00     0.014 A 
HETATM    9  C   UNK     0      -9.428  -2.222  -3.983  0.00  0.00     0.091 A 
HETATM   10  C   UNK     0      -7.800  -3.754  -2.300  0.00  0.00     0.075 A 
HETATM   11  C   UNK     0      -9.126  -3.498  -1.950  0.00  0.00     0.077 A 
ENDROOT
BRANCH   3  12
HETATM   12  C   UNK     0      -4.215  -3.809  -5.379  0.00  0.00    -0.029 A 
HETATM   13  C   UNK     0      -3.695  -3.949  -6.666  0.00  0.00     0.010 A 
HETATM   14  C   UNK     0      -2.339  -4.227  -6.843  0.00  0.00     0.001 A 
HETATM   15  C   UNK     0      -1.504  -4.364  -5.734  0.00  0.00     0.000 A 
HETATM   16  C   UNK     0      -2.026  -4.224  -4.447  0.00  0.00     0.001 A 
HETATM   17  C   UNK     0      -3.381  -3.946  -4.271  0.00  0.00     0.010 A 
ENDBRANCH   3  12
BRANCH   9  18
HETATM   18  O   UNK     0     -10.248  -1.471  -4.772  0.00  0.00    -0.359 OA
HETATM   19  H   UNK     0     -11.172  -1.551  -4.490  0.00  0.00     0.217 HD
ENDBRANCH   9  18
BRANCH  11  20
HETATM   20  O   UNK     0      -9.610  -4.001  -0.779  0.00  0.00    -0.360 OA
HETATM   21  H   UNK     0     -10.497  -4.374  -0.881  0.00  0.00     0.217 HD
ENDBRANCH  11  20
BRANCH   8  22
HETATM   22  C   UNK     0     -11.360  -2.473  -2.406  0.00  0.00     0.085 C 
BRANCH  22  23
HETATM   23  C   UNK     0     -11.533  -1.273  -1.500  0.00  0.00    -0.021 A 
HETATM   24  C   UNK     0     -11.952  -1.449  -0.191  0.00  0.00     0.072 A 
HETATM   25  C   UNK     0     -12.106  -0.332   0.630  0.00  0.00     0.037 A 
HETATM   26  C   UNK     0     -11.839   0.943   0.132  0.00  0.00     0.003 A 
HETATM   27  C   UNK     0     -11.418   1.102  -1.187  0.00  0.00     0.001 A 
HETATM   28  C   UNK     0     -11.264  -0.015  -2.009  0.00  0.00     0.010 A 
BRANCH  24  29
HETATM   29  O   UNK     0     -12.217  -2.687   0.310  0.00  0.00    -0.360 OA
HETATM   30  H   UNK     0     -11.671  -3.342  -0.158  0.00  0.00     0.217 HD
ENDBRANCH  24  29
ENDBRANCH  22  23
ENDBRANCH   8  22
TORSDOF 6
ENDMDL
MODEL 8
REMARK VINA RESULT:      -7.2      1.644      8.006
REMARK  6 active torsions:
REMARK  status: ('A' for Active; 'I' for Inactive)
REMARK    1  A    between atoms: O_2  and  C_12 
REMARK    2  A    between atoms: O_4  and  C_16 
REMARK    3  A    between atoms: O_5  and  C_20 
REMARK    4  A    between atoms: C_6  and  C_13 
REMARK    5  A    between atoms: C_11  and  C_14 
REMARK    6  A    between atoms: C_14  and  C_17 
ROOT
HETATM    1  O   UNK     0      -2.831  -4.051  -7.286  0.00  0.00    -0.340 OA
HETATM    2  O   UNK     0      -5.556  -0.989  -7.442  0.00  0.00    -0.292 OA
HETATM    3  C   UNK     0      -3.357  -3.599  -8.544  0.00  0.00     0.169 C 
HETATM    4  C   UNK     0      -3.716  -2.116  -8.487  0.00  0.00     0.121 C 
HETATM    5  C   UNK     0      -4.646  -2.804  -6.237  0.00  0.00     0.077 A 
HETATM    6  C   UNK     0      -3.683  -3.817  -6.237  0.00  0.00     0.089 A 
HETATM    7  C   UNK     0      -4.735  -1.898  -7.401  0.00  0.00     0.167 C 
HETATM    8  C   UNK     0      -5.344  -3.457  -4.022  0.00  0.00     0.014 A 
HETATM    9  C   UNK     0      -5.484  -2.625  -5.134  0.00  0.00     0.091 A 
HETATM   10  C   UNK     0      -3.534  -4.632  -5.114  0.00  0.00     0.075 A 
HETATM   11  C   UNK     0      -4.369  -4.455  -4.010  0.00  0.00     0.077 A 
ENDROOT
BRANCH   3  12
HETATM   12  C   UNK     0      -2.326  -3.871  -9.619  0.00  0.00    -0.029 A 
HETATM   13  C   UNK     0      -2.219  -5.146 -10.175  0.00  0.00     0.010 A 
HETATM   14  C   UNK     0      -1.270  -5.397 -11.166  0.00  0.00     0.001 A 
HETATM   15  C   UNK     0      -0.427  -4.374 -11.600  0.00  0.00     0.000 A 
HETATM   16  C   UNK     0      -0.535  -3.099 -11.044  0.00  0.00     0.001 A 
HETATM   17  C   UNK     0      -1.484  -2.848 -10.053  0.00  0.00     0.010 A 
ENDBRANCH   3  12
BRANCH   9  18
HETATM   18  O   UNK     0      -6.438  -1.652  -5.103  0.00  0.00    -0.359 OA
HETATM   19  H   UNK     0      -6.066  -0.809  -4.802  0.00  0.00     0.217 HD
ENDBRANCH   9  18
BRANCH  11  20
HETATM   20  O   UNK     0      -4.217  -5.269  -2.927  0.00  0.00    -0.360 OA
HETATM   21  H   UNK     0      -5.063  -5.604  -2.600  0.00  0.00     0.217 HD
ENDBRANCH  11  20
BRANCH   8  22
HETATM   22  C   UNK     0      -6.235  -3.278  -2.834  0.00  0.00     0.085 C 
BRANCH  22  23
HETATM   23  C   UNK     0      -7.564  -3.994  -2.954  0.00  0.00    -0.021 A 
HETATM   24  C   UNK     0      -8.701  -3.288  -3.313  0.00  0.00     0.072 A 
HETATM   25  C   UNK     0      -9.916  -3.964  -3.419  0.00  0.00     0.037 A 
HETATM   26  C   UNK     0      -9.978  -5.333  -3.165  0.00  0.00     0.003 A 
HETATM   27  C   UNK     0      -8.825  -6.029  -2.805  0.00  0.00     0.001 A 
HETATM   28  C   UNK     0      -7.608  -5.354  -2.699  0.00  0.00     0.010 A 
BRANCH  24  29
HETATM   29  O   UNK     0      -8.657  -1.950  -3.563  0.00  0.00    -0.360 OA
HETATM   30  H   UNK     0      -9.425  -1.705  -4.109  0.00  0.00     0.217 HD
ENDBRANCH  24  29
ENDBRANCH  22  23
ENDBRANCH   8  22
TORSDOF 6
ENDMDL
MODEL 9
REMARK VINA RESULT:      -7.2      2.705      9.039
REMARK  6 active torsions:
REMARK  status: ('A' for Active; 'I' for Inactive)
REMARK    1  A    between atoms: O_2  and  C_12 
REMARK    2  A    between atoms: O_4  and  C_16 
REMARK    3  A    between atoms: O_5  and  C_20 
REMARK    4  A    between atoms: C_6  and  C_13 
REMARK    5  A    between atoms: C_11  and  C_14 
REMARK    6  A    between atoms: C_14  and  C_17 
ROOT
HETATM    1  O   UNK     0      -5.342  -3.600  -3.661  0.00  0.00    -0.340 OA
HETATM    2  O   UNK     0      -8.308  -1.750  -5.808  0.00  0.00    -0.292 OA
HETATM    3  C   UNK     0      -5.276  -3.530  -5.095  0.00  0.00     0.169 C 
HETATM    4  C   UNK     0      -5.976  -2.276  -5.614  0.00  0.00     0.121 C 
HETATM    5  C   UNK     0      -7.684  -2.954  -3.875  0.00  0.00     0.077 A 
HETATM    6  C   UNK     0      -6.626  -3.551  -3.184  0.00  0.00     0.089 A 
HETATM    7  C   UNK     0      -7.415  -2.296  -5.170  0.00  0.00     0.167 C 
HETATM    8  C   UNK     0      -9.189  -3.522  -2.077  0.00  0.00     0.014 A 
HETATM    9  C   UNK     0      -8.969  -2.944  -3.328  0.00  0.00     0.091 A 
HETATM   10  C   UNK     0      -6.848  -4.108  -1.923  0.00  0.00     0.075 A 
HETATM   11  C   UNK     0      -8.131  -4.099  -1.374  0.00  0.00     0.077 A 
ENDROOT
BRANCH   3  12
HETATM   12  C   UNK     0      -3.820  -3.554  -5.509  0.00  0.00    -0.029 A 
HETATM   13  C   UNK     0      -2.888  -4.252  -4.740  0.00  0.00     0.010 A 
HETATM   14  C   UNK     0      -1.547  -4.276  -5.122  0.00  0.00     0.001 A 
HETATM   15  C   UNK     0      -1.137  -3.601  -6.272  0.00  0.00     0.000 A 
HETATM   16  C   UNK     0      -2.069  -2.903  -7.041  0.00  0.00     0.001 A 
HETATM   17  C   UNK     0      -3.411  -2.880  -6.658  0.00  0.00     0.010 A 
ENDBRANCH   3  12
BRANCH   9  18
HETATM   18  O   UNK     0     -10.025  -2.377  -3.978  0.00  0.00    -0.359 OA
HETATM   19  H   UNK     0     -10.294  -1.550  -3.550  0.00  0.00     0.217 HD
ENDBRANCH   9  18
BRANCH  11  20
HETATM   20  O   UNK     0      -8.331  -4.659  -0.148  0.00  0.00    -0.360 OA
HETATM   21  H   UNK     0      -8.597  -5.587  -0.209  0.00  0.00     0.217 HD
ENDBRANCH  11  20
BRANCH   8  22
HETATM   22  C   UNK     0     -10.561  -3.520  -1.480  0.00  0.00     0.085 C 
BRANCH  22  23
HETATM   23  C   UNK     0     -11.227  -4.879  -1.476  0.00  0.00    -0.021 A 
HETATM   24  C   UNK     0     -11.490  -5.518  -0.275  0.00  0.00     0.072 A 
HETATM   25  C   UNK     0     -12.104  -6.770  -0.290  0.00  0.00     0.037 A 
HETATM   26  C   UNK     0     -12.446  -7.365  -1.504  0.00  0.00     0.003 A 
HETATM   27  C   UNK     0     -12.175  -6.709  -2.704  0.00  0.00     0.001 A 
HETATM   28  C   UNK     0     -11.560  -5.456  -2.689  0.00  0.00     0.010 A 
BRANCH  24  29
HETATM   29  O   UNK     0     -11.162  -4.950   0.919  0.00  0.00    -0.360 OA
HETATM   30  H   UNK     0     -10.488  -5.499   1.356  0.00  0.00     0.217 HD
ENDBRANCH  24  29
ENDBRANCH  22  23
ENDBRANCH   8  22
TORSDOF 6
ENDMDL
