REMARK VINA RESULT:      -8.7      0.000      0.000
REMARK  32 active torsions:
REMARK  status: ('A' for Active; 'I' for Inactive)
REMARK    1  A    between atoms: O_11  and  C_51 
REMARK    2  A    between atoms: O_12  and  C_52 
REMARK    3  A    between atoms: O_13  and  C_53 
REMARK    4  A    between atoms: O_14  and  C_54 
REMARK    5  A    between atoms: O_15  and  C_55 
REMARK    6  A    between atoms: O_16  and  C_56 
REMARK    7  A    between atoms: O_17  and  C_57 
REMARK    8  A    between atoms: O_18  and  C_58 
REMARK    9  A    between atoms: O_19  and  C_59 
REMARK   10  A    between atoms: O_20  and  C_62 
REMARK   11  A    between atoms: O_21  and  C_63 
REMARK   12  A    between atoms: O_22  and  C_64 
REMARK   13  A    between atoms: O_23  and  C_65 
REMARK   14  A    between atoms: O_24  and  C_66 
REMARK   15  A    between atoms: O_25  and  C_67 
REMARK   16  A    between atoms: C_30  and  C_32 
REMARK   17  A    between atoms: C_31  and  C_33 
REMARK   18  A    between atoms: C_33  and  C_37 
REMARK   19  A    between atoms: C_35  and  C_39 
REMARK   20  A    between atoms: C_41  and  C_44 
REMARK   21  A    between atoms: C_42  and  C_53 
REMARK   22  A    between atoms: C_45  and  C_62 
REMARK   23  A    between atoms: C_47  and  C_63 
REMARK   24  A    between atoms: C_51  and  C_52 
REMARK   25  A    between atoms: C_52  and  C_53 
REMARK   26  A    between atoms: C_56  and  C_57 
REMARK   27  A    between atoms: C_57  and  C_63 
REMARK   28  A    between atoms: C_58  and  C_59 
REMARK   29  A    between atoms: C_59  and  C_64 
REMARK   30  A    between atoms: C_60  and  C_67 
REMARK   31  A    between atoms: C_65  and  C_66 
REMARK   32  A    between atoms: C_66  and  C_67 
ROOT
HETATM    1  O   UNK     0       1.443  -2.855 -11.397  0.00  0.00     0.000 OA
HETATM    2  O   UNK     0      -0.018  -4.376 -13.531  0.00  0.00     0.000 OA
HETATM    3  O   UNK     0      -0.046  -2.376 -13.531  0.00  0.00    -0.349 OA
HETATM    4  O   UNK     0       0.984  -5.362 -12.108  0.00  0.00     0.000 OA
HETATM    5  O   UNK     0       0.498  -5.869 -12.820  0.00  0.00    -0.224 OA
HETATM    6  O   UNK     0       0.427  -0.869 -12.820  0.00  0.00    -0.413 OA
HETATM    7  O   UNK     0       1.972  -5.348 -10.686  0.00  0.00    -0.304 OA
HETATM    8  C   UNK     0       0.469  -3.869 -12.820  0.00  0.00     0.018 A 
HETATM    9  C   UNK     0       0.455  -2.869 -12.820  0.00  0.00     0.186 A 
HETATM   10  C   UNK     0       0.970  -4.362 -12.108  0.00  0.00     0.057 A 
HETATM   11  C   UNK     0       0.942  -2.362 -12.109  0.00  0.00     0.142 A 
HETATM   12  C   UNK     0       1.457  -3.855 -11.397  0.00  0.00     0.011 A 
HETATM   13  C   UNK     0       0.928  -1.362 -12.109  0.00  0.00     0.487 A 
HETATM   14  C   UNK     0      -0.003  -5.376 -13.531  0.00  0.00     0.153 A 
HETATM   15  C   UNK     0      -0.060  -1.376 -13.531  0.00  0.00     0.148 A 
HETATM   16  C   UNK     0       1.485  -5.855 -11.397  0.00  0.00     0.099 A 
HETATM   17  C   UNK     0      -0.490  -5.883 -14.242  0.00  0.00     0.070 A 
HETATM   18  C   UNK     0       1.499  -6.855 -11.397  0.00  0.00     0.087 A 
HETATM   19  C   UNK     0      -0.991  -5.390 -14.954  0.00  0.00     0.082 A 
HETATM   20  C   UNK     0      -0.476  -6.883 -14.242  0.00  0.00     0.083 A 
HETATM   21  C   UNK     0       1.013  -7.361 -12.108  0.00  0.00     0.106 A 
HETATM   22  C   UNK     0       2.000  -7.347 -10.685  0.00  0.00     0.089 A 
HETATM   23  C   UNK     0      -0.963  -7.390 -14.954  0.00  0.00     0.114 A 
HETATM   24  C   UNK     0      -1.478  -5.897 -15.665  0.00  0.00     0.114 A 
HETATM   25  C   UNK     0       2.014  -8.347 -10.685  0.00  0.00     0.118 A 
HETATM   26  C   UNK     0       1.027  -8.361 -12.108  0.00  0.00     0.120 A 
HETATM   27  C   UNK     0      -1.464  -6.897 -15.665  0.00  0.00     0.130 A 
HETATM   28  C   UNK     0       1.528  -8.854 -11.397  0.00  0.00     0.131 A 
ENDROOT
BRANCH  12  29
HETATM   29  C   UNK     0       1.958  -4.348 -10.686  0.00  0.00     0.086 A 
HETATM   30  O   UNK     0       2.020  -3.967  -9.763  0.00  0.00     0.000 OA
HETATM   31  C   UNK     0       2.521  -4.460  -9.052  0.00  0.00     0.142 A 
HETATM   32  O   UNK     0       2.960  -5.334  -9.263  0.00  0.00    -0.297 OA
BRANCH  31  33
HETATM   33  C   UNK     0       2.583  -4.080  -8.129  0.00  0.00     0.089 A 
HETATM   34  C   UNK     0       1.934  -3.379  -7.832  0.00  0.00     0.084 A 
HETATM   35  C   UNK     0       1.996  -2.999  -6.909  0.00  0.00     0.115 A 
HETATM   36  C   UNK     0       3.294  -4.400  -7.503  0.00  0.00     0.084 A 
HETATM   37  C   UNK     0       3.355  -4.020  -6.580  0.00  0.00     0.115 A 
HETATM   38  C   UNK     0       2.706  -3.319  -6.283  0.00  0.00     0.107 A 
BRANCH  35  39
HETATM   39  O   UNK     0       1.347  -2.298  -6.613  0.00  0.00    -0.385 OA
HETATM   40  H   UNK     0       1.471  -1.699  -6.712  0.00  0.00     0.210 HD
ENDBRANCH  35  39
BRANCH  37  41
HETATM   41  O   UNK     0       4.066  -4.340  -5.954  0.00  0.00    -0.385 OA
HETATM   42  H   UNK     0       3.920  -4.492  -5.370  0.00  0.00     0.210 HD
ENDBRANCH  37  41
BRANCH  38  43
HETATM   43  O   UNK     0       2.768  -2.939  -5.360  0.00  0.00    -0.386 OA
HETATM   44  H   UNK     0       2.813  -2.326  -5.280  0.00  0.00     0.210 HD
ENDBRANCH  38  43
ENDBRANCH  31  33
ENDBRANCH  12  29
BRANCH  13  45
HETATM   45  C   UNK     0       1.415  -0.855 -11.397  0.00  0.00     0.019 C 
HETATM   46  O   UNK     0       2.415  -0.844 -11.387  0.00  0.00    -0.324 OA
BRANCH  45  47
HETATM   47  C   UNK     0       0.902  -0.359 -10.697  0.00  0.00     0.068 A 
HETATM   48  C   UNK     0       0.864   0.640 -10.718  0.00  0.00     0.082 A 
HETATM   49  C   UNK     0       0.351   1.135 -10.017  0.00  0.00     0.113 A 
HETATM   50  C   UNK     0       0.427  -0.863  -9.975  0.00  0.00     0.082 A 
HETATM   51  C   UNK     0      -0.086  -0.367  -9.274  0.00  0.00     0.113 A 
HETATM   52  C   UNK     0      -0.124   0.632  -9.295  0.00  0.00     0.106 A 
BRANCH  49  53
HETATM   53  O   UNK     0       0.313   2.134 -10.038  0.00  0.00    -0.385 OA
HETATM   54  H   UNK     0       0.260   2.454  -9.510  0.00  0.00     0.210 HD
ENDBRANCH  49  53
BRANCH  51  55
HETATM   55  O   UNK     0      -0.561  -0.870  -8.552  0.00  0.00    -0.385 OA
HETATM   56  H   UNK     0      -0.238  -1.132  -8.093  0.00  0.00     0.210 HD
ENDBRANCH  51  55
BRANCH  52  57
HETATM   57  O   UNK     0      -0.637   1.128  -8.595  0.00  0.00    -0.386 OA
HETATM   58  H   UNK     0      -0.668   1.747  -8.613  0.00  0.00     0.210 HD
ENDBRANCH  52  57
ENDBRANCH  45  47
ENDBRANCH  13  45
BRANCH  15  59
HETATM   59  C   UNK     0      -0.561  -0.883 -14.243  0.00  0.00     0.083 A 
HETATM   60  C   UNK     0      -1.533  -1.066 -14.387  0.00  0.00     0.081 A 
HETATM   61  C   UNK     0      -2.034  -0.573 -15.098  0.00  0.00     0.113 A 
HETATM   62  C   UNK     0      -0.089  -0.208 -14.810  0.00  0.00     0.081 A 
HETATM   63  C   UNK     0      -0.590   0.285 -15.521  0.00  0.00     0.113 A 
HETATM   64  C   UNK     0      -1.563   0.102 -15.666  0.00  0.00     0.106 A 
BRANCH  61  65
HETATM   65  O   UNK     0      -3.007  -0.755 -15.243  0.00  0.00    -0.385 OA
HETATM   66  H   UNK     0      -3.205  -0.964 -15.792  0.00  0.00     0.210 HD
ENDBRANCH  61  65
BRANCH  63  67
HETATM   67  O   UNK     0      -0.118   0.960 -16.089  0.00  0.00    -0.385 OA
HETATM   68  H   UNK     0      -0.282   1.035 -16.682  0.00  0.00     0.210 HD
ENDBRANCH  63  67
BRANCH  64  69
HETATM   69  O   UNK     0      -2.064   0.595 -16.377  0.00  0.00    -0.386 OA
HETATM   70  H   UNK     0      -2.540   0.323 -16.666  0.00  0.00     0.210 HD
ENDBRANCH  64  69
ENDBRANCH  15  59
BRANCH  25  71
HETATM   71  O   UNK     0       2.515  -8.840  -9.974  0.00  0.00    -0.385 OA
HETATM   72  H   UNK     0       2.666  -9.436 -10.057  0.00  0.00     0.210 HD
ENDBRANCH  25  71
BRANCH  26  73
HETATM   73  O   UNK     0       0.540  -8.868 -12.819  0.00  0.00    -0.384 OA
HETATM   74  H   UNK     0       0.163  -8.569 -13.210  0.00  0.00     0.210 HD
ENDBRANCH  26  73
BRANCH  28  75
HETATM   75  O   UNK     0       1.542  -9.854 -11.397  0.00  0.00    -0.383 OA
HETATM   76  H   UNK     0       1.882 -10.159 -10.978  0.00  0.00     0.210 HD
ENDBRANCH  28  75
BRANCH  24  77
HETATM   77  O   UNK     0      -1.979  -5.404 -16.376  0.00  0.00    -0.385 OA
HETATM   78  H   UNK     0      -1.727  -5.330 -16.938  0.00  0.00     0.210 HD
ENDBRANCH  24  77
BRANCH  23  79
HETATM   79  O   UNK     0      -0.949  -8.390 -14.953  0.00  0.00    -0.385 OA
HETATM   80  H   UNK     0      -0.464  -8.693 -15.194  0.00  0.00     0.210 HD
ENDBRANCH  23  79
BRANCH  27  81
HETATM   81  O   UNK     0      -1.951  -7.404 -16.376  0.00  0.00    -0.383 OA
HETATM   82  H   UNK     0      -1.942  -8.024 -16.376  0.00  0.00     0.210 HD
ENDBRANCH  27  81
TORSDOF 32
