MODEL 1
REMARK VINA RESULT:      -8.7      0.000      0.000
REMARK  32 active torsions:
REMARK  status: ('A' for Active; 'I' for Inactive)
REMARK    1  A    between atoms: O_11  and  C_51 
REMARK    2  A    between atoms: O_12  and  C_52 
REMARK    3  A    between atoms: O_13  and  C_53 
REMARK    4  A    between atoms: O_14  and  C_54 
REMARK    5  A    between atoms: O_15  and  C_55 
REMARK    6  A    between atoms: O_16  and  C_56 
REMARK    7  A    between atoms: O_17  and  C_57 
REMARK    8  A    between atoms: O_18  and  C_58 
REMARK    9  A    between atoms: O_19  and  C_59 
REMARK   10  A    between atoms: O_20  and  C_62 
REMARK   11  A    between atoms: O_21  and  C_63 
REMARK   12  A    between atoms: O_22  and  C_64 
REMARK   13  A    between atoms: O_23  and  C_65 
REMARK   14  A    between atoms: O_24  and  C_66 
REMARK   15  A    between atoms: O_25  and  C_67 
REMARK   16  A    between atoms: C_30  and  C_32 
REMARK   17  A    between atoms: C_31  and  C_33 
REMARK   18  A    between atoms: C_33  and  C_37 
REMARK   19  A    between atoms: C_35  and  C_39 
REMARK   20  A    between atoms: C_41  and  C_44 
REMARK   21  A    between atoms: C_42  and  C_53 
REMARK   22  A    between atoms: C_45  and  C_62 
REMARK   23  A    between atoms: C_47  and  C_63 
REMARK   24  A    between atoms: C_51  and  C_52 
REMARK   25  A    between atoms: C_52  and  C_53 
REMARK   26  A    between atoms: C_56  and  C_57 
REMARK   27  A    between atoms: C_57  and  C_63 
REMARK   28  A    between atoms: C_58  and  C_59 
REMARK   29  A    between atoms: C_59  and  C_64 
REMARK   30  A    between atoms: C_60  and  C_67 
REMARK   31  A    between atoms: C_65  and  C_66 
REMARK   32  A    between atoms: C_66  and  C_67 
ROOT
HETATM    1  O   UNK     0       1.443  -2.855 -11.397  0.00  0.00     0.000 OA
HETATM    2  O   UNK     0      -0.018  -4.376 -13.531  0.00  0.00     0.000 OA
HETATM    3  O   UNK     0      -0.046  -2.376 -13.531  0.00  0.00    -0.349 OA
HETATM    4  O   UNK     0       0.984  -5.362 -12.108  0.00  0.00     0.000 OA
HETATM    5  O   UNK     0       0.498  -5.869 -12.820  0.00  0.00    -0.224 OA
HETATM    6  O   UNK     0       0.427  -0.869 -12.820  0.00  0.00    -0.413 OA
HETATM    7  O   UNK     0       1.972  -5.348 -10.686  0.00  0.00    -0.304 OA
HETATM    8  C   UNK     0       0.469  -3.869 -12.820  0.00  0.00     0.018 A 
HETATM    9  C   UNK     0       0.455  -2.869 -12.820  0.00  0.00     0.186 A 
HETATM   10  C   UNK     0       0.970  -4.362 -12.108  0.00  0.00     0.057 A 
HETATM   11  C   UNK     0       0.942  -2.362 -12.109  0.00  0.00     0.142 A 
HETATM   12  C   UNK     0       1.457  -3.855 -11.397  0.00  0.00     0.011 A 
HETATM   13  C   UNK     0       0.928  -1.362 -12.109  0.00  0.00     0.487 A 
HETATM   14  C   UNK     0      -0.003  -5.376 -13.531  0.00  0.00     0.153 A 
HETATM   15  C   UNK     0      -0.060  -1.376 -13.531  0.00  0.00     0.148 A 
HETATM   16  C   UNK     0       1.485  -5.855 -11.397  0.00  0.00     0.099 A 
HETATM   17  C   UNK     0      -0.490  -5.883 -14.242  0.00  0.00     0.070 A 
HETATM   18  C   UNK     0       1.499  -6.855 -11.397  0.00  0.00     0.087 A 
HETATM   19  C   UNK     0      -0.991  -5.390 -14.954  0.00  0.00     0.082 A 
HETATM   20  C   UNK     0      -0.476  -6.883 -14.242  0.00  0.00     0.083 A 
HETATM   21  C   UNK     0       1.013  -7.361 -12.108  0.00  0.00     0.106 A 
HETATM   22  C   UNK     0       2.000  -7.347 -10.685  0.00  0.00     0.089 A 
HETATM   23  C   UNK     0      -0.963  -7.390 -14.954  0.00  0.00     0.114 A 
HETATM   24  C   UNK     0      -1.478  -5.897 -15.665  0.00  0.00     0.114 A 
HETATM   25  C   UNK     0       2.014  -8.347 -10.685  0.00  0.00     0.118 A 
HETATM   26  C   UNK     0       1.027  -8.361 -12.108  0.00  0.00     0.120 A 
HETATM   27  C   UNK     0      -1.464  -6.897 -15.665  0.00  0.00     0.130 A 
HETATM   28  C   UNK     0       1.528  -8.854 -11.397  0.00  0.00     0.131 A 
ENDROOT
BRANCH  12  29
HETATM   29  C   UNK     0       1.958  -4.348 -10.686  0.00  0.00     0.086 A 
HETATM   30  O   UNK     0       2.020  -3.967  -9.763  0.00  0.00     0.000 OA
HETATM   31  C   UNK     0       2.521  -4.460  -9.052  0.00  0.00     0.142 A 
HETATM   32  O   UNK     0       2.960  -5.334  -9.263  0.00  0.00    -0.297 OA
BRANCH  31  33
HETATM   33  C   UNK     0       2.583  -4.080  -8.129  0.00  0.00     0.089 A 
HETATM   34  C   UNK     0       1.934  -3.379  -7.832  0.00  0.00     0.084 A 
HETATM   35  C   UNK     0       1.996  -2.999  -6.909  0.00  0.00     0.115 A 
HETATM   36  C   UNK     0       3.294  -4.400  -7.503  0.00  0.00     0.084 A 
HETATM   37  C   UNK     0       3.355  -4.020  -6.580  0.00  0.00     0.115 A 
HETATM   38  C   UNK     0       2.706  -3.319  -6.283  0.00  0.00     0.107 A 
BRANCH  35  39
HETATM   39  O   UNK     0       1.347  -2.298  -6.613  0.00  0.00    -0.385 OA
HETATM   40  H   UNK     0       1.471  -1.699  -6.712  0.00  0.00     0.210 HD
ENDBRANCH  35  39
BRANCH  37  41
HETATM   41  O   UNK     0       4.066  -4.340  -5.954  0.00  0.00    -0.385 OA
HETATM   42  H   UNK     0       3.920  -4.492  -5.370  0.00  0.00     0.210 HD
ENDBRANCH  37  41
BRANCH  38  43
HETATM   43  O   UNK     0       2.768  -2.939  -5.360  0.00  0.00    -0.386 OA
HETATM   44  H   UNK     0       2.813  -2.326  -5.280  0.00  0.00     0.210 HD
ENDBRANCH  38  43
ENDBRANCH  31  33
ENDBRANCH  12  29
BRANCH  13  45
HETATM   45  C   UNK     0       1.415  -0.855 -11.397  0.00  0.00     0.019 C 
HETATM   46  O   UNK     0       2.415  -0.844 -11.387  0.00  0.00    -0.324 OA
BRANCH  45  47
HETATM   47  C   UNK     0       0.902  -0.359 -10.697  0.00  0.00     0.068 A 
HETATM   48  C   UNK     0       0.864   0.640 -10.718  0.00  0.00     0.082 A 
HETATM   49  C   UNK     0       0.351   1.135 -10.017  0.00  0.00     0.113 A 
HETATM   50  C   UNK     0       0.427  -0.863  -9.975  0.00  0.00     0.082 A 
HETATM   51  C   UNK     0      -0.086  -0.367  -9.274  0.00  0.00     0.113 A 
HETATM   52  C   UNK     0      -0.124   0.632  -9.295  0.00  0.00     0.106 A 
BRANCH  49  53
HETATM   53  O   UNK     0       0.313   2.134 -10.038  0.00  0.00    -0.385 OA
HETATM   54  H   UNK     0       0.260   2.454  -9.510  0.00  0.00     0.210 HD
ENDBRANCH  49  53
BRANCH  51  55
HETATM   55  O   UNK     0      -0.561  -0.870  -8.552  0.00  0.00    -0.385 OA
HETATM   56  H   UNK     0      -0.238  -1.132  -8.093  0.00  0.00     0.210 HD
ENDBRANCH  51  55
BRANCH  52  57
HETATM   57  O   UNK     0      -0.637   1.128  -8.595  0.00  0.00    -0.386 OA
HETATM   58  H   UNK     0      -0.668   1.747  -8.613  0.00  0.00     0.210 HD
ENDBRANCH  52  57
ENDBRANCH  45  47
ENDBRANCH  13  45
BRANCH  15  59
HETATM   59  C   UNK     0      -0.561  -0.883 -14.243  0.00  0.00     0.083 A 
HETATM   60  C   UNK     0      -1.533  -1.066 -14.387  0.00  0.00     0.081 A 
HETATM   61  C   UNK     0      -2.034  -0.573 -15.098  0.00  0.00     0.113 A 
HETATM   62  C   UNK     0      -0.089  -0.208 -14.810  0.00  0.00     0.081 A 
HETATM   63  C   UNK     0      -0.590   0.285 -15.521  0.00  0.00     0.113 A 
HETATM   64  C   UNK     0      -1.563   0.102 -15.666  0.00  0.00     0.106 A 
BRANCH  61  65
HETATM   65  O   UNK     0      -3.007  -0.755 -15.243  0.00  0.00    -0.385 OA
HETATM   66  H   UNK     0      -3.205  -0.964 -15.792  0.00  0.00     0.210 HD
ENDBRANCH  61  65
BRANCH  63  67
HETATM   67  O   UNK     0      -0.118   0.960 -16.089  0.00  0.00    -0.385 OA
HETATM   68  H   UNK     0      -0.282   1.035 -16.682  0.00  0.00     0.210 HD
ENDBRANCH  63  67
BRANCH  64  69
HETATM   69  O   UNK     0      -2.064   0.595 -16.377  0.00  0.00    -0.386 OA
HETATM   70  H   UNK     0      -2.540   0.323 -16.666  0.00  0.00     0.210 HD
ENDBRANCH  64  69
ENDBRANCH  15  59
BRANCH  25  71
HETATM   71  O   UNK     0       2.515  -8.840  -9.974  0.00  0.00    -0.385 OA
HETATM   72  H   UNK     0       2.666  -9.436 -10.057  0.00  0.00     0.210 HD
ENDBRANCH  25  71
BRANCH  26  73
HETATM   73  O   UNK     0       0.540  -8.868 -12.819  0.00  0.00    -0.384 OA
HETATM   74  H   UNK     0       0.163  -8.569 -13.210  0.00  0.00     0.210 HD
ENDBRANCH  26  73
BRANCH  28  75
HETATM   75  O   UNK     0       1.542  -9.854 -11.397  0.00  0.00    -0.383 OA
HETATM   76  H   UNK     0       1.882 -10.159 -10.978  0.00  0.00     0.210 HD
ENDBRANCH  28  75
BRANCH  24  77
HETATM   77  O   UNK     0      -1.979  -5.404 -16.376  0.00  0.00    -0.385 OA
HETATM   78  H   UNK     0      -1.727  -5.330 -16.938  0.00  0.00     0.210 HD
ENDBRANCH  24  77
BRANCH  23  79
HETATM   79  O   UNK     0      -0.949  -8.390 -14.953  0.00  0.00    -0.385 OA
HETATM   80  H   UNK     0      -0.464  -8.693 -15.194  0.00  0.00     0.210 HD
ENDBRANCH  23  79
BRANCH  27  81
HETATM   81  O   UNK     0      -1.951  -7.404 -16.376  0.00  0.00    -0.383 OA
HETATM   82  H   UNK     0      -1.942  -8.024 -16.376  0.00  0.00     0.210 HD
ENDBRANCH  27  81
TORSDOF 32
ENDMDL
MODEL 2
REMARK VINA RESULT:      -8.7      1.329      6.196
REMARK  32 active torsions:
REMARK  status: ('A' for Active; 'I' for Inactive)
REMARK    1  A    between atoms: O_11  and  C_51 
REMARK    2  A    between atoms: O_12  and  C_52 
REMARK    3  A    between atoms: O_13  and  C_53 
REMARK    4  A    between atoms: O_14  and  C_54 
REMARK    5  A    between atoms: O_15  and  C_55 
REMARK    6  A    between atoms: O_16  and  C_56 
REMARK    7  A    between atoms: O_17  and  C_57 
REMARK    8  A    between atoms: O_18  and  C_58 
REMARK    9  A    between atoms: O_19  and  C_59 
REMARK   10  A    between atoms: O_20  and  C_62 
REMARK   11  A    between atoms: O_21  and  C_63 
REMARK   12  A    between atoms: O_22  and  C_64 
REMARK   13  A    between atoms: O_23  and  C_65 
REMARK   14  A    between atoms: O_24  and  C_66 
REMARK   15  A    between atoms: O_25  and  C_67 
REMARK   16  A    between atoms: C_30  and  C_32 
REMARK   17  A    between atoms: C_31  and  C_33 
REMARK   18  A    between atoms: C_33  and  C_37 
REMARK   19  A    between atoms: C_35  and  C_39 
REMARK   20  A    between atoms: C_41  and  C_44 
REMARK   21  A    between atoms: C_42  and  C_53 
REMARK   22  A    between atoms: C_45  and  C_62 
REMARK   23  A    between atoms: C_47  and  C_63 
REMARK   24  A    between atoms: C_51  and  C_52 
REMARK   25  A    between atoms: C_52  and  C_53 
REMARK   26  A    between atoms: C_56  and  C_57 
REMARK   27  A    between atoms: C_57  and  C_63 
REMARK   28  A    between atoms: C_58  and  C_59 
REMARK   29  A    between atoms: C_59  and  C_64 
REMARK   30  A    between atoms: C_60  and  C_67 
REMARK   31  A    between atoms: C_65  and  C_66 
REMARK   32  A    between atoms: C_66  and  C_67 
ROOT
HETATM    1  O   UNK     0       1.713  -2.331 -11.034  0.00  0.00     0.000 OA
HETATM    2  O   UNK     0       0.733  -4.435 -12.935  0.00  0.00     0.000 OA
HETATM    3  O   UNK     0       2.057  -4.910 -11.513  0.00  0.00    -0.349 OA
HETATM    4  O   UNK     0       0.062  -2.558 -13.089  0.00  0.00     0.000 OA
HETATM    5  O   UNK     0      -0.264  -3.259 -13.723  0.00  0.00    -0.224 OA
HETATM    6  O   UNK     0       3.045  -4.447 -10.168  0.00  0.00    -0.413 OA
HETATM    7  O   UNK     0       0.053  -0.917 -12.533  0.00  0.00    -0.304 OA
HETATM    8  C   UNK     0       1.060  -3.734 -12.301  0.00  0.00     0.018 A 
HETATM    9  C   UNK     0       1.722  -3.972 -11.590  0.00  0.00     0.186 A 
HETATM   10  C   UNK     0       0.724  -2.795 -12.378  0.00  0.00     0.057 A 
HETATM   11  C   UNK     0       2.048  -3.270 -10.956  0.00  0.00     0.142 A 
HETATM   12  C   UNK     0       1.051  -2.094 -11.745  0.00  0.00     0.011 A 
HETATM   13  C   UNK     0       2.710  -3.508 -10.246  0.00  0.00     0.487 A 
HETATM   14  C   UNK     0       0.071  -4.198 -13.646  0.00  0.00     0.153 A 
HETATM   15  C   UNK     0       2.719  -5.148 -10.802  0.00  0.00     0.148 A 
HETATM   16  C   UNK     0      -0.273  -1.619 -13.166  0.00  0.00     0.099 A 
HETATM   17  C   UNK     0      -0.255  -4.899 -14.280  0.00  0.00     0.070 A 
HETATM   18  C   UNK     0      -0.935  -1.381 -13.877  0.00  0.00     0.087 A 
HETATM   19  C   UNK     0       0.080  -5.838 -14.202  0.00  0.00     0.082 A 
HETATM   20  C   UNK     0      -0.917  -4.661 -14.991  0.00  0.00     0.083 A 
HETATM   21  C   UNK     0      -1.261  -2.082 -14.511  0.00  0.00     0.106 A 
HETATM   22  C   UNK     0      -1.270  -0.442 -13.954  0.00  0.00     0.089 A 
HETATM   23  C   UNK     0      -1.243  -5.363 -15.624  0.00  0.00     0.114 A 
HETATM   24  C   UNK     0      -0.246  -6.539 -14.836  0.00  0.00     0.114 A 
HETATM   25  C   UNK     0      -1.932  -0.205 -14.665  0.00  0.00     0.118 A 
HETATM   26  C   UNK     0      -1.923  -1.845 -15.222  0.00  0.00     0.120 A 
HETATM   27  C   UNK     0      -0.908  -6.301 -15.547  0.00  0.00     0.130 A 
HETATM   28  C   UNK     0      -2.259  -0.906 -15.299  0.00  0.00     0.131 A 
ENDROOT
BRANCH  12  29
HETATM   29  C   UNK     0       0.715  -1.155 -11.822  0.00  0.00     0.086 A 
HETATM   30  O   UNK     0       0.849  -0.513 -11.067  0.00  0.00     0.000 OA
HETATM   31  C   UNK     0       0.513   0.426 -11.144  0.00  0.00     0.142 A 
HETATM   32  O   UNK     0       0.044   0.723 -11.976  0.00  0.00    -0.297 OA
BRANCH  31  33
HETATM   33  C   UNK     0       0.647   1.068 -10.389  0.00  0.00     0.089 A 
HETATM   34  C   UNK     0      -0.123   1.316  -9.801  0.00  0.00     0.084 A 
HETATM   35  C   UNK     0       0.010   1.958  -9.047  0.00  0.00     0.115 A 
HETATM   36  C   UNK     0       1.550   1.463 -10.222  0.00  0.00     0.084 A 
HETATM   37  C   UNK     0       1.684   2.105  -9.468  0.00  0.00     0.115 A 
HETATM   38  C   UNK     0       0.913   2.353  -8.880  0.00  0.00     0.107 A 
BRANCH  35  39
HETATM   39  O   UNK     0      -0.760   2.206  -8.459  0.00  0.00    -0.385 OA
HETATM   40  H   UNK     0      -1.294   1.893  -8.498  0.00  0.00     0.210 HD
ENDBRANCH  35  39
BRANCH  37  41
HETATM   41  O   UNK     0       2.587   2.500  -9.301  0.00  0.00    -0.385 OA
HETATM   42  H   UNK     0       2.952   2.263  -8.859  0.00  0.00     0.210 HD
ENDBRANCH  37  41
BRANCH  38  43
HETATM   43  O   UNK     0       1.047   2.995  -8.125  0.00  0.00    -0.386 OA
HETATM   44  H   UNK     0       0.569   3.331  -7.915  0.00  0.00     0.210 HD
ENDBRANCH  38  43
ENDBRANCH  31  33
ENDBRANCH  12  29
BRANCH  13  45
HETATM   45  C   UNK     0       3.036  -2.807  -9.612  0.00  0.00     0.019 C 
HETATM   46  O   UNK     0       3.575  -2.036  -9.953  0.00  0.00    -0.324 OA
BRANCH  45  47
HETATM   47  C   UNK     0       2.824  -2.876  -8.637  0.00  0.00     0.068 A 
HETATM   48  C   UNK     0       3.496  -3.264  -8.006  0.00  0.00     0.082 A 
HETATM   49  C   UNK     0       3.284  -3.333  -7.031  0.00  0.00     0.113 A 
HETATM   50  C   UNK     0       1.941  -2.557  -8.294  0.00  0.00     0.082 A 
HETATM   51  C   UNK     0       1.729  -2.627  -7.319  0.00  0.00     0.113 A 
HETATM   52  C   UNK     0       2.400  -3.014  -6.687  0.00  0.00     0.106 A 
BRANCH  49  53
HETATM   53  O   UNK     0       3.955  -3.721  -6.399  0.00  0.00    -0.385 OA
HETATM   54  H   UNK     0       4.475  -3.978  -6.619  0.00  0.00     0.210 HD
ENDBRANCH  49  53
BRANCH  51  55
HETATM   55  O   UNK     0       0.845  -2.308  -6.975  0.00  0.00    -0.385 OA
HETATM   56  H   UNK     0       0.332  -2.398  -7.311  0.00  0.00     0.210 HD
ENDBRANCH  51  55
BRANCH  52  57
HETATM   57  O   UNK     0       2.188  -3.084  -5.713  0.00  0.00    -0.386 OA
HETATM   58  H   UNK     0       1.744  -2.729  -5.466  0.00  0.00     0.210 HD
ENDBRANCH  52  57
ENDBRANCH  45  47
ENDBRANCH  13  45
BRANCH  15  59
HETATM   59  C   UNK     0       3.054  -6.087 -10.725  0.00  0.00     0.083 A 
HETATM   60  C   UNK     0       3.051  -6.548  -9.838  0.00  0.00     0.081 A 
HETATM   61  C   UNK     0       3.386  -7.487  -9.760  0.00  0.00     0.113 A 
HETATM   62  C   UNK     0       3.393  -6.565 -11.535  0.00  0.00     0.081 A 
HETATM   63  C   UNK     0       3.729  -7.504 -11.458  0.00  0.00     0.113 A 
HETATM   64  C   UNK     0       3.725  -7.965 -10.571  0.00  0.00     0.106 A 
BRANCH  61  65
HETATM   65  O   UNK     0       3.383  -7.948  -8.873  0.00  0.00    -0.385 OA
HETATM   66  H   UNK     0       3.170  -7.652  -8.371  0.00  0.00     0.210 HD
ENDBRANCH  61  65
BRANCH  63  67
HETATM   67  O   UNK     0       4.068  -7.982 -12.268  0.00  0.00    -0.385 OA
HETATM   68  H   UNK     0       4.042  -7.707 -12.824  0.00  0.00     0.210 HD
ENDBRANCH  63  67
BRANCH  64  69
HETATM   69  O   UNK     0       4.061  -8.903 -10.494  0.00  0.00    -0.386 OA
HETATM   70  H   UNK     0       4.324  -9.096  -9.966  0.00  0.00     0.210 HD
ENDBRANCH  64  69
ENDBRANCH  15  59
BRANCH  25  71
HETATM   71  O   UNK     0      -2.268   0.734 -14.743  0.00  0.00    -0.385 OA
HETATM   72  H   UNK     0      -2.392   1.062 -14.231  0.00  0.00     0.210 HD
ENDBRANCH  25  71
BRANCH  26  73
HETATM   73  O   UNK     0      -2.250  -2.546 -15.856  0.00  0.00    -0.384 OA
HETATM   74  H   UNK     0      -2.781  -2.462 -16.164  0.00  0.00     0.210 HD
ENDBRANCH  26  73
BRANCH  28  75
HETATM   75  O   UNK     0      -2.921  -0.668 -16.010  0.00  0.00    -0.383 OA
HETATM   76  H   UNK     0      -3.524  -0.778 -15.921  0.00  0.00     0.210 HD
ENDBRANCH  28  75
BRANCH  24  77
HETATM   77  O   UNK     0       0.090  -7.478 -14.759  0.00  0.00    -0.385 OA
HETATM   78  H   UNK     0      -0.243  -7.946 -14.993  0.00  0.00     0.210 HD
ENDBRANCH  24  77
BRANCH  23  79
HETATM   79  O   UNK     0      -1.905  -5.125 -16.335  0.00  0.00    -0.385 OA
HETATM   80  H   UNK     0      -2.447  -5.425 -16.367  0.00  0.00     0.210 HD
ENDBRANCH  23  79
BRANCH  27  81
HETATM   81  O   UNK     0      -1.234  -7.003 -16.181  0.00  0.00    -0.383 OA
HETATM   82  H   UNK     0      -1.330  -6.861 -16.777  0.00  0.00     0.210 HD
ENDBRANCH  27  81
TORSDOF 32
ENDMDL
MODEL 3
REMARK VINA RESULT:      -8.6      1.336      5.209
REMARK  32 active torsions:
REMARK  status: ('A' for Active; 'I' for Inactive)
REMARK    1  A    between atoms: O_11  and  C_51 
REMARK    2  A    between atoms: O_12  and  C_52 
REMARK    3  A    between atoms: O_13  and  C_53 
REMARK    4  A    between atoms: O_14  and  C_54 
REMARK    5  A    between atoms: O_15  and  C_55 
REMARK    6  A    between atoms: O_16  and  C_56 
REMARK    7  A    between atoms: O_17  and  C_57 
REMARK    8  A    between atoms: O_18  and  C_58 
REMARK    9  A    between atoms: O_19  and  C_59 
REMARK   10  A    between atoms: O_20  and  C_62 
REMARK   11  A    between atoms: O_21  and  C_63 
REMARK   12  A    between atoms: O_22  and  C_64 
REMARK   13  A    between atoms: O_23  and  C_65 
REMARK   14  A    between atoms: O_24  and  C_66 
REMARK   15  A    between atoms: O_25  and  C_67 
REMARK   16  A    between atoms: C_30  and  C_32 
REMARK   17  A    between atoms: C_31  and  C_33 
REMARK   18  A    between atoms: C_33  and  C_37 
REMARK   19  A    between atoms: C_35  and  C_39 
REMARK   20  A    between atoms: C_41  and  C_44 
REMARK   21  A    between atoms: C_42  and  C_53 
REMARK   22  A    between atoms: C_45  and  C_62 
REMARK   23  A    between atoms: C_47  and  C_63 
REMARK   24  A    between atoms: C_51  and  C_52 
REMARK   25  A    between atoms: C_52  and  C_53 
REMARK   26  A    between atoms: C_56  and  C_57 
REMARK   27  A    between atoms: C_57  and  C_63 
REMARK   28  A    between atoms: C_58  and  C_59 
REMARK   29  A    between atoms: C_59  and  C_64 
REMARK   30  A    between atoms: C_60  and  C_67 
REMARK   31  A    between atoms: C_65  and  C_66 
REMARK   32  A    between atoms: C_66  and  C_67 
ROOT
HETATM    1  O   UNK     0       2.047  -3.532 -10.716  0.00  0.00     0.000 OA
HETATM    2  O   UNK     0       0.225  -1.697 -12.237  0.00  0.00     0.000 OA
HETATM    3  O   UNK     0       1.286  -0.999 -10.692  0.00  0.00    -0.349 OA
HETATM    4  O   UNK     0       0.379  -3.619 -12.768  0.00  0.00     0.000 OA
HETATM    5  O   UNK     0      -0.228  -3.007 -13.275  0.00  0.00    -0.224 OA
HETATM    6  O   UNK     0       2.423  -1.261  -9.412  0.00  0.00    -0.413 OA
HETATM    7  O   UNK     0       1.063  -5.192 -12.526  0.00  0.00    -0.304 OA
HETATM    8  C   UNK     0       0.832  -2.309 -11.730  0.00  0.00     0.018 A 
HETATM    9  C   UNK     0       1.363  -1.960 -10.957  0.00  0.00     0.186 A 
HETATM   10  C   UNK     0       0.909  -3.270 -11.995  0.00  0.00     0.057 A 
HETATM   11  C   UNK     0       1.970  -2.571 -10.450  0.00  0.00     0.142 A 
HETATM   12  C   UNK     0       1.517  -3.882 -11.488  0.00  0.00     0.011 A 
HETATM   13  C   UNK     0       2.500  -2.222  -9.678  0.00  0.00     0.487 A 
HETATM   14  C   UNK     0      -0.305  -2.046 -13.009  0.00  0.00     0.153 A 
HETATM   15  C   UNK     0       1.816  -0.649  -9.919  0.00  0.00     0.148 A 
HETATM   16  C   UNK     0       0.456  -4.580 -13.033  0.00  0.00     0.099 A 
HETATM   17  C   UNK     0      -0.912  -1.435 -13.516  0.00  0.00     0.070 A 
HETATM   18  C   UNK     0      -0.074  -4.929 -13.806  0.00  0.00     0.087 A 
HETATM   19  C   UNK     0      -0.989  -0.474 -13.251  0.00  0.00     0.082 A 
HETATM   20  C   UNK     0      -1.443  -1.784 -14.289  0.00  0.00     0.083 A 
HETATM   21  C   UNK     0      -0.681  -4.318 -14.313  0.00  0.00     0.106 A 
HETATM   22  C   UNK     0       0.003  -5.890 -14.071  0.00  0.00     0.089 A 
HETATM   23  C   UNK     0      -2.050  -1.172 -14.796  0.00  0.00     0.114 A 
HETATM   24  C   UNK     0      -1.597   0.138 -13.758  0.00  0.00     0.114 A 
HETATM   25  C   UNK     0      -0.528  -6.240 -14.844  0.00  0.00     0.118 A 
HETATM   26  C   UNK     0      -1.212  -4.667 -15.085  0.00  0.00     0.120 A 
HETATM   27  C   UNK     0      -2.127  -0.211 -14.530  0.00  0.00     0.130 A 
HETATM   28  C   UNK     0      -1.135  -5.628 -15.351  0.00  0.00     0.131 A 
ENDROOT
BRANCH  12  29
HETATM   29  C   UNK     0       1.594  -4.843 -11.754  0.00  0.00     0.086 A 
HETATM   30  O   UNK     0       1.851  -5.530 -11.075  0.00  0.00     0.000 OA
HETATM   31  C   UNK     0       1.928  -6.491 -11.340  0.00  0.00     0.142 A 
HETATM   32  O   UNK     0       1.748  -6.765 -12.285  0.00  0.00    -0.297 OA
BRANCH  31  33
HETATM   33  C   UNK     0       2.185  -7.178 -10.661  0.00  0.00     0.089 A 
HETATM   34  C   UNK     0       2.092  -6.977  -9.686  0.00  0.00     0.084 A 
HETATM   35  C   UNK     0       2.349  -7.664  -9.007  0.00  0.00     0.115 A 
HETATM   36  C   UNK     0       2.534  -8.067 -10.957  0.00  0.00     0.084 A 
HETATM   37  C   UNK     0       2.791  -8.755 -10.277  0.00  0.00     0.115 A 
HETATM   38  C   UNK     0       2.699  -8.553  -9.302  0.00  0.00     0.107 A 
BRANCH  35  39
HETATM   39  O   UNK     0       2.257  -7.462  -8.031  0.00  0.00    -0.385 OA
HETATM   40  H   UNK     0       2.237  -6.874  -7.837  0.00  0.00     0.210 HD
ENDBRANCH  35  39
BRANCH  37  41
HETATM   41  O   UNK     0       3.140  -9.644 -10.573  0.00  0.00    -0.385 OA
HETATM   42  H   UNK     0       3.379  -9.710 -11.142  0.00  0.00     0.210 HD
ENDBRANCH  37  41
BRANCH  38  43
HETATM   43  O   UNK     0       2.956  -9.241  -8.623  0.00  0.00    -0.386 OA
HETATM   44  H   UNK     0       2.797  -9.164  -8.029  0.00  0.00     0.210 HD
ENDBRANCH  38  43
ENDBRANCH  31  33
ENDBRANCH  12  29
BRANCH  13  45
HETATM   45  C   UNK     0       3.108  -2.834  -9.171  0.00  0.00     0.019 C 
HETATM   46  O   UNK     0       3.948  -3.170  -9.596  0.00  0.00    -0.324 OA
BRANCH  45  47
HETATM   47  C   UNK     0       2.875  -3.109  -8.238  0.00  0.00     0.068 A 
HETATM   48  C   UNK     0       3.379  -2.728  -7.464  0.00  0.00     0.082 A 
HETATM   49  C   UNK     0       3.146  -3.004  -6.531  0.00  0.00     0.113 A 
HETATM   50  C   UNK     0       2.137  -3.766  -8.080  0.00  0.00     0.082 A 
HETATM   51  C   UNK     0       1.904  -4.042  -7.148  0.00  0.00     0.113 A 
HETATM   52  C   UNK     0       2.409  -3.661  -6.373  0.00  0.00     0.106 A 
BRANCH  49  53
HETATM   53  O   UNK     0       3.651  -2.623  -5.756  0.00  0.00    -0.385 OA
HETATM   54  H   UNK     0       3.361  -2.519  -5.218  0.00  0.00     0.210 HD
ENDBRANCH  49  53
BRANCH  51  55
HETATM   55  O   UNK     0       1.167  -4.698  -6.990  0.00  0.00    -0.385 OA
HETATM   56  H   UNK     0       0.730  -4.578  -6.567  0.00  0.00     0.210 HD
ENDBRANCH  51  55
BRANCH  52  57
HETATM   57  O   UNK     0       2.176  -3.936  -5.440  0.00  0.00    -0.386 OA
HETATM   58  H   UNK     0       1.683  -4.298  -5.338  0.00  0.00     0.210 HD
ENDBRANCH  52  57
ENDBRANCH  45  47
ENDBRANCH  13  45
BRANCH  15  59
HETATM   59  C   UNK     0       1.739   0.312  -9.654  0.00  0.00     0.083 A 
HETATM   60  C   UNK     0       2.505   0.936  -9.808  0.00  0.00     0.081 A 
HETATM   61  C   UNK     0       2.428   1.897  -9.542  0.00  0.00     0.113 A 
HETATM   62  C   UNK     0       0.896   0.648  -9.234  0.00  0.00     0.081 A 
HETATM   63  C   UNK     0       0.819   1.609  -8.968  0.00  0.00     0.113 A 
HETATM   64  C   UNK     0       1.585   2.234  -9.123  0.00  0.00     0.106 A 
BRANCH  61  65
HETATM   65  O   UNK     0       3.194   2.521  -9.697  0.00  0.00    -0.385 OA
HETATM   66  H   UNK     0       3.090   3.129  -9.765  0.00  0.00     0.210 HD
ENDBRANCH  61  65
BRANCH  63  67
HETATM   67  O   UNK     0      -0.023   1.946  -8.548  0.00  0.00    -0.385 OA
HETATM   68  H   UNK     0      -0.026   2.116  -7.952  0.00  0.00     0.210 HD
ENDBRANCH  63  67
BRANCH  64  69
HETATM   69  O   UNK     0       1.508   3.195  -8.857  0.00  0.00    -0.386 OA
HETATM   70  H   UNK     0       1.545   3.639  -9.288  0.00  0.00     0.210 HD
ENDBRANCH  64  69
ENDBRANCH  15  59
BRANCH  25  71
HETATM   71  O   UNK     0      -0.451  -7.201 -15.109  0.00  0.00    -0.385 OA
HETATM   72  H   UNK     0       0.012  -7.548 -14.886  0.00  0.00     0.210 HD
ENDBRANCH  25  71
BRANCH  26  73
HETATM   73  O   UNK     0      -1.819  -4.055 -15.592  0.00  0.00    -0.384 OA
HETATM   74  H   UNK     0      -2.204  -4.285 -16.020  0.00  0.00     0.210 HD
ENDBRANCH  26  73
BRANCH  28  75
HETATM   75  O   UNK     0      -1.665  -5.977 -16.123  0.00  0.00    -0.383 OA
HETATM   76  H   UNK     0      -2.247  -6.173 -16.037  0.00  0.00     0.210 HD
ENDBRANCH  28  75
BRANCH  24  77
HETATM   77  O   UNK     0      -1.674   1.099 -13.492  0.00  0.00    -0.385 OA
HETATM   78  H   UNK     0      -1.181   1.473 -13.535  0.00  0.00     0.210 HD
ENDBRANCH  24  77
BRANCH  23  79
HETATM   79  O   UNK     0      -2.580  -1.521 -15.568  0.00  0.00    -0.385 OA
HETATM   80  H   UNK     0      -3.146  -1.757 -15.474  0.00  0.00     0.210 HD
ENDBRANCH  23  79
BRANCH  27  81
HETATM   81  O   UNK     0      -2.734   0.401 -15.037  0.00  0.00    -0.383 OA
HETATM   82  H   UNK     0      -3.321   0.233 -15.148  0.00  0.00     0.210 HD
ENDBRANCH  27  81
TORSDOF 32
ENDMDL
MODEL 4
REMARK VINA RESULT:      -8.6      1.412      6.183
REMARK  32 active torsions:
REMARK  status: ('A' for Active; 'I' for Inactive)
REMARK    1  A    between atoms: O_11  and  C_51 
REMARK    2  A    between atoms: O_12  and  C_52 
REMARK    3  A    between atoms: O_13  and  C_53 
REMARK    4  A    between atoms: O_14  and  C_54 
REMARK    5  A    between atoms: O_15  and  C_55 
REMARK    6  A    between atoms: O_16  and  C_56 
REMARK    7  A    between atoms: O_17  and  C_57 
REMARK    8  A    between atoms: O_18  and  C_58 
REMARK    9  A    between atoms: O_19  and  C_59 
REMARK   10  A    between atoms: O_20  and  C_62 
REMARK   11  A    between atoms: O_21  and  C_63 
REMARK   12  A    between atoms: O_22  and  C_64 
REMARK   13  A    between atoms: O_23  and  C_65 
REMARK   14  A    between atoms: O_24  and  C_66 
REMARK   15  A    between atoms: O_25  and  C_67 
REMARK   16  A    between atoms: C_30  and  C_32 
REMARK   17  A    between atoms: C_31  and  C_33 
REMARK   18  A    between atoms: C_33  and  C_37 
REMARK   19  A    between atoms: C_35  and  C_39 
REMARK   20  A    between atoms: C_41  and  C_44 
REMARK   21  A    between atoms: C_42  and  C_53 
REMARK   22  A    between atoms: C_45  and  C_62 
REMARK   23  A    between atoms: C_47  and  C_63 
REMARK   24  A    between atoms: C_51  and  C_52 
REMARK   25  A    between atoms: C_52  and  C_53 
REMARK   26  A    between atoms: C_56  and  C_57 
REMARK   27  A    between atoms: C_57  and  C_63 
REMARK   28  A    between atoms: C_58  and  C_59 
REMARK   29  A    between atoms: C_59  and  C_64 
REMARK   30  A    between atoms: C_60  and  C_67 
REMARK   31  A    between atoms: C_65  and  C_66 
REMARK   32  A    between atoms: C_66  and  C_67 
ROOT
HETATM    1  O   UNK     0       1.457  -4.189 -11.059  0.00  0.00     0.000 OA
HETATM    2  O   UNK     0      -0.325  -2.678 -12.941  0.00  0.00     0.000 OA
HETATM    3  O   UNK     0      -0.207  -4.671 -13.059  0.00  0.00    -0.349 OA
HETATM    4  O   UNK     0       0.744  -1.692 -11.568  0.00  0.00     0.000 OA
HETATM    5  O   UNK     0       0.151  -1.188 -12.196  0.00  0.00    -0.224 OA
HETATM    6  O   UNK     0       0.446  -6.171 -12.491  0.00  0.00    -0.413 OA
HETATM    7  O   UNK     0       1.873  -1.703 -10.255  0.00  0.00    -0.304 OA
HETATM    8  C   UNK     0       0.269  -3.181 -12.314  0.00  0.00     0.018 A 
HETATM    9  C   UNK     0       0.328  -4.178 -12.373  0.00  0.00     0.186 A 
HETATM   10  C   UNK     0       0.804  -2.688 -11.627  0.00  0.00     0.057 A 
HETATM   11  C   UNK     0       0.922  -4.681 -11.746  0.00  0.00     0.142 A 
HETATM   12  C   UNK     0       1.397  -3.192 -11.000  0.00  0.00     0.011 A 
HETATM   13  C   UNK     0       0.981  -5.678 -11.805  0.00  0.00     0.487 A 
HETATM   14  C   UNK     0      -0.384  -1.681 -12.882  0.00  0.00     0.153 A 
HETATM   15  C   UNK     0      -0.147  -5.667 -13.118  0.00  0.00     0.148 A 
HETATM   16  C   UNK     0       1.279  -1.199 -10.882  0.00  0.00     0.099 A 
HETATM   17  C   UNK     0      -0.978  -1.177 -13.510  0.00  0.00     0.070 A 
HETATM   18  C   UNK     0       1.220  -0.203 -10.823  0.00  0.00     0.087 A 
HETATM   19  C   UNK     0      -1.513  -1.670 -14.196  0.00  0.00     0.082 A 
HETATM   20  C   UNK     0      -1.037  -0.181 -13.451  0.00  0.00     0.083 A 
HETATM   21  C   UNK     0       0.626   0.301 -11.450  0.00  0.00     0.106 A 
HETATM   22  C   UNK     0       1.755   0.290 -10.136  0.00  0.00     0.089 A 
HETATM   23  C   UNK     0      -1.631   0.323 -14.078  0.00  0.00     0.114 A 
HETATM   24  C   UNK     0      -2.107  -1.167 -14.823  0.00  0.00     0.114 A 
HETATM   25  C   UNK     0       1.695   1.287 -10.077  0.00  0.00     0.118 A 
HETATM   26  C   UNK     0       0.567   1.297 -11.391  0.00  0.00     0.120 A 
HETATM   27  C   UNK     0      -2.166  -0.170 -14.764  0.00  0.00     0.130 A 
HETATM   28  C   UNK     0       1.102   1.790 -10.705  0.00  0.00     0.131 A 
ENDROOT
BRANCH  12  29
HETATM   29  C   UNK     0       1.932  -2.699 -10.314  0.00  0.00     0.086 A 
HETATM   30  O   UNK     0       2.194  -3.154  -9.462  0.00  0.00     0.000 OA
HETATM   31  C   UNK     0       2.729  -2.662  -8.776  0.00  0.00     0.142 A 
HETATM   32  O   UNK     0       3.002  -1.714  -8.941  0.00  0.00    -0.297 OA
BRANCH  31  33
HETATM   33  C   UNK     0       2.991  -3.117  -7.925  0.00  0.00     0.089 A 
HETATM   34  C   UNK     0       3.399  -4.029  -7.951  0.00  0.00     0.084 A 
HETATM   35  C   UNK     0       3.661  -4.484  -7.100  0.00  0.00     0.115 A 
HETATM   36  C   UNK     0       2.844  -2.659  -7.048  0.00  0.00     0.084 A 
HETATM   37  C   UNK     0       3.106  -3.114  -6.197  0.00  0.00     0.115 A 
HETATM   38  C   UNK     0       3.514  -4.027  -6.223  0.00  0.00     0.107 A 
BRANCH  35  39
HETATM   39  O   UNK     0       4.069  -5.396  -7.126  0.00  0.00    -0.385 OA
HETATM   40  H   UNK     0       4.656  -5.468  -7.312  0.00  0.00     0.210 HD
ENDBRANCH  35  39
BRANCH  37  41
HETATM   41  O   UNK     0       2.959  -2.657  -5.320  0.00  0.00    -0.385 OA
HETATM   42  H   UNK     0       2.825  -2.052  -5.304  0.00  0.00     0.210 HD
ENDBRANCH  37  41
BRANCH  38  43
HETATM   43  O   UNK     0       3.776  -4.482  -5.372  0.00  0.00    -0.386 OA
HETATM   44  H   UNK     0       4.279  -4.293  -5.061  0.00  0.00     0.210 HD
ENDBRANCH  38  43
ENDBRANCH  31  33
ENDBRANCH  12  29
BRANCH  13  45
HETATM   45  C   UNK     0       1.575  -6.182 -11.177  0.00  0.00     0.019 C 
HETATM   46  O   UNK     0       2.567  -6.155 -11.298  0.00  0.00    -0.324 OA
BRANCH  45  47
HETATM   47  C   UNK     0       1.177  -6.711 -10.428  0.00  0.00     0.068 A 
HETATM   48  C   UNK     0       0.451  -7.374 -10.615  0.00  0.00     0.082 A 
HETATM   49  C   UNK     0       0.053  -7.903  -9.867  0.00  0.00     0.113 A 
HETATM   50  C   UNK     0       1.504  -6.579  -9.493  0.00  0.00     0.082 A 
HETATM   51  C   UNK     0       1.106  -7.109  -8.744  0.00  0.00     0.113 A 
HETATM   52  C   UNK     0       0.380  -7.771  -8.931  0.00  0.00     0.106 A 
BRANCH  49  53
HETATM   53  O   UNK     0      -0.673  -8.565 -10.054  0.00  0.00    -0.385 OA
HETATM   54  H   UNK     0      -0.532  -9.122 -10.287  0.00  0.00     0.210 HD
ENDBRANCH  49  53
BRANCH  51  55
HETATM   55  O   UNK     0       1.433  -6.976  -7.809  0.00  0.00    -0.385 OA
HETATM   56  H   UNK     0       1.837  -7.377  -7.562  0.00  0.00     0.210 HD
ENDBRANCH  51  55
BRANCH  52  57
HETATM   57  O   UNK     0      -0.019  -8.301  -8.182  0.00  0.00    -0.386 OA
HETATM   58  H   UNK     0      -0.594  -8.177  -7.987  0.00  0.00     0.210 HD
ENDBRANCH  52  57
ENDBRANCH  45  47
ENDBRANCH  13  45
BRANCH  15  59
HETATM   59  C   UNK     0      -0.682  -6.160 -13.805  0.00  0.00     0.083 A 
HETATM   60  C   UNK     0      -0.353  -6.218 -14.747  0.00  0.00     0.081 A 
HETATM   61  C   UNK     0      -0.888  -6.711 -15.434  0.00  0.00     0.113 A 
HETATM   62  C   UNK     0      -1.546  -6.594 -13.549  0.00  0.00     0.081 A 
HETATM   63  C   UNK     0      -2.080  -7.087 -14.235  0.00  0.00     0.113 A 
HETATM   64  C   UNK     0      -1.751  -7.145 -15.178  0.00  0.00     0.106 A 
BRANCH  61  65
HETATM   65  O   UNK     0      -0.559  -6.770 -16.376  0.00  0.00    -0.385 OA
HETATM   66  H   UNK     0       0.050  -6.764 -16.493  0.00  0.00     0.210 HD
ENDBRANCH  61  65
BRANCH  63  67
HETATM   67  O   UNK     0      -2.944  -7.521 -13.979  0.00  0.00    -0.385 OA
HETATM   68  H   UNK     0      -3.138  -7.502 -13.390  0.00  0.00     0.210 HD
ENDBRANCH  63  67
BRANCH  64  69
HETATM   69  O   UNK     0      -2.286  -7.638 -15.864  0.00  0.00    -0.386 OA
HETATM   70  H   UNK     0      -2.870  -7.807 -15.740  0.00  0.00     0.210 HD
ENDBRANCH  64  69
ENDBRANCH  15  59
BRANCH  25  71
HETATM   71  O   UNK     0       2.230   1.779  -9.391  0.00  0.00    -0.385 OA
HETATM   72  H   UNK     0       2.307   1.537  -8.825  0.00  0.00     0.210 HD
ENDBRANCH  25  71
BRANCH  26  73
HETATM   73  O   UNK     0      -0.027   1.801 -12.019  0.00  0.00    -0.384 OA
HETATM   74  H   UNK     0      -0.325   1.501 -12.472  0.00  0.00     0.210 HD
ENDBRANCH  26  73
BRANCH  28  75
HETATM   75  O   UNK     0       1.042   2.787 -10.646  0.00  0.00    -0.383 OA
HETATM   76  H   UNK     0       0.488   3.065 -10.649  0.00  0.00     0.210 HD
ENDBRANCH  28  75
BRANCH  24  77
HETATM   77  O   UNK     0      -2.641  -1.659 -15.510  0.00  0.00    -0.385 OA
HETATM   78  H   UNK     0      -2.433  -1.703 -16.092  0.00  0.00     0.210 HD
ENDBRANCH  24  77
BRANCH  23  79
HETATM   79  O   UNK     0      -1.690   1.319 -14.019  0.00  0.00    -0.385 OA
HETATM   80  H   UNK     0      -1.178   1.655 -13.921  0.00  0.00     0.210 HD
ENDBRANCH  23  79
BRANCH  27  81
HETATM   81  O   UNK     0      -2.760   0.334 -15.392  0.00  0.00    -0.383 OA
HETATM   82  H   UNK     0      -2.581   0.885 -15.613  0.00  0.00     0.210 HD
ENDBRANCH  27  81
TORSDOF 32
ENDMDL
MODEL 5
REMARK VINA RESULT:      -7.7      0.945      6.316
REMARK  32 active torsions:
REMARK  status: ('A' for Active; 'I' for Inactive)
REMARK    1  A    between atoms: O_11  and  C_51 
REMARK    2  A    between atoms: O_12  and  C_52 
REMARK    3  A    between atoms: O_13  and  C_53 
REMARK    4  A    between atoms: O_14  and  C_54 
REMARK    5  A    between atoms: O_15  and  C_55 
REMARK    6  A    between atoms: O_16  and  C_56 
REMARK    7  A    between atoms: O_17  and  C_57 
REMARK    8  A    between atoms: O_18  and  C_58 
REMARK    9  A    between atoms: O_19  and  C_59 
REMARK   10  A    between atoms: O_20  and  C_62 
REMARK   11  A    between atoms: O_21  and  C_63 
REMARK   12  A    between atoms: O_22  and  C_64 
REMARK   13  A    between atoms: O_23  and  C_65 
REMARK   14  A    between atoms: O_24  and  C_66 
REMARK   15  A    between atoms: O_25  and  C_67 
REMARK   16  A    between atoms: C_30  and  C_32 
REMARK   17  A    between atoms: C_31  and  C_33 
REMARK   18  A    between atoms: C_33  and  C_37 
REMARK   19  A    between atoms: C_35  and  C_39 
REMARK   20  A    between atoms: C_41  and  C_44 
REMARK   21  A    between atoms: C_42  and  C_53 
REMARK   22  A    between atoms: C_45  and  C_62 
REMARK   23  A    between atoms: C_47  and  C_63 
REMARK   24  A    between atoms: C_51  and  C_52 
REMARK   25  A    between atoms: C_52  and  C_53 
REMARK   26  A    between atoms: C_56  and  C_57 
REMARK   27  A    between atoms: C_57  and  C_63 
REMARK   28  A    between atoms: C_58  and  C_59 
REMARK   29  A    between atoms: C_59  and  C_64 
REMARK   30  A    between atoms: C_60  and  C_67 
REMARK   31  A    between atoms: C_65  and  C_66 
REMARK   32  A    between atoms: C_66  and  C_67 
ROOT
HETATM    1  O   UNK     0       0.943  -2.407 -11.588  0.00  0.00     0.000 OA
HETATM    2  O   UNK     0       1.156  -5.291 -10.792  0.00  0.00     0.000 OA
HETATM    3  O   UNK     0       1.851  -3.864  -9.575  0.00  0.00    -0.349 OA
HETATM    4  O   UNK     0       0.319  -4.795 -12.539  0.00  0.00     0.000 OA
HETATM    5  O   UNK     0       0.390  -5.757 -12.274  0.00  0.00    -0.224 OA
HETATM    6  O   UNK     0       2.127  -2.189  -9.232  0.00  0.00    -0.413 OA
HETATM    7  O   UNK     0      -0.170  -3.586 -13.678  0.00  0.00    -0.304 OA
HETATM    8  C   UNK     0       1.085  -4.330 -11.057  0.00  0.00     0.018 A 
HETATM    9  C   UNK     0       1.433  -3.616 -10.449  0.00  0.00     0.186 A 
HETATM   10  C   UNK     0       0.667  -4.082 -11.931  0.00  0.00     0.057 A 
HETATM   11  C   UNK     0       1.362  -2.655 -10.714  0.00  0.00     0.142 A 
HETATM   12  C   UNK     0       0.596  -3.120 -12.196  0.00  0.00     0.011 A 
HETATM   13  C   UNK     0       1.709  -1.941 -10.106  0.00  0.00     0.487 A 
HETATM   14  C   UNK     0       0.809  -6.005 -11.400  0.00  0.00     0.153 A 
HETATM   15  C   UNK     0       2.198  -3.150  -8.967  0.00  0.00     0.148 A 
HETATM   16  C   UNK     0      -0.099  -4.547 -13.413  0.00  0.00     0.099 A 
HETATM   17  C   UNK     0       0.880  -6.966 -11.135  0.00  0.00     0.070 A 
HETATM   18  C   UNK     0      -0.447  -5.261 -14.021  0.00  0.00     0.087 A 
HETATM   19  C   UNK     0       1.298  -7.214 -10.261  0.00  0.00     0.082 A 
HETATM   20  C   UNK     0       0.532  -7.680 -11.743  0.00  0.00     0.083 A 
HETATM   21  C   UNK     0      -0.376  -6.222 -13.756  0.00  0.00     0.106 A 
HETATM   22  C   UNK     0      -0.865  -5.013 -14.895  0.00  0.00     0.089 A 
HETATM   23  C   UNK     0       0.603  -8.641 -11.477  0.00  0.00     0.114 A 
HETATM   24  C   UNK     0       1.369  -8.176  -9.995  0.00  0.00     0.114 A 
HETATM   25  C   UNK     0      -1.212  -5.726 -15.503  0.00  0.00     0.118 A 
HETATM   26  C   UNK     0      -0.723  -6.936 -14.364  0.00  0.00     0.120 A 
HETATM   27  C   UNK     0       1.022  -8.889 -10.604  0.00  0.00     0.130 A 
HETATM   28  C   UNK     0      -1.142  -6.688 -15.238  0.00  0.00     0.131 A 
ENDROOT
BRANCH  12  29
HETATM   29  C   UNK     0       0.177  -2.872 -13.070  0.00  0.00     0.086 A 
HETATM   30  O   UNK     0      -0.107  -1.928 -13.238  0.00  0.00     0.000 OA
HETATM   31  C   UNK     0      -0.525  -1.680 -14.112  0.00  0.00     0.142 A 
HETATM   32  O   UNK     0      -0.660  -2.376 -14.817  0.00  0.00    -0.297 OA
BRANCH  31  33
HETATM   33  C   UNK     0      -0.810  -0.737 -14.280  0.00  0.00     0.089 A 
HETATM   34  C   UNK     0      -0.148   0.008 -14.191  0.00  0.00     0.084 A 
HETATM   35  C   UNK     0      -0.433   0.952 -14.359  0.00  0.00     0.115 A 
HETATM   36  C   UNK     0      -1.755  -0.538 -14.537  0.00  0.00     0.084 A 
HETATM   37  C   UNK     0      -2.040   0.406 -14.706  0.00  0.00     0.115 A 
HETATM   38  C   UNK     0      -1.378   1.151 -14.617  0.00  0.00     0.107 A 
BRANCH  35  39
HETATM   39  O   UNK     0       0.228   1.697 -14.270  0.00  0.00    -0.385 OA
HETATM   40  H   UNK     0       0.755   1.684 -14.597  0.00  0.00     0.210 HD
ENDBRANCH  35  39
BRANCH  37  41
HETATM   41  O   UNK     0      -2.985   0.605 -14.963  0.00  0.00    -0.385 OA
HETATM   42  H   UNK     0      -3.258   1.125 -14.762  0.00  0.00     0.210 HD
ENDBRANCH  37  41
BRANCH  38  43
HETATM   43  O   UNK     0      -1.663   2.095 -14.785  0.00  0.00    -0.386 OA
HETATM   44  H   UNK     0      -1.611   2.519 -14.336  0.00  0.00     0.210 HD
ENDBRANCH  38  43
ENDBRANCH  31  33
ENDBRANCH  12  29
BRANCH  13  45
HETATM   45  C   UNK     0       1.638  -0.979 -10.371  0.00  0.00     0.019 C 
HETATM   46  O   UNK     0       2.160  -0.637 -11.152  0.00  0.00    -0.324 OA
BRANCH  45  47
HETATM   47  C   UNK     0       1.045  -0.361  -9.855  0.00  0.00     0.068 A 
HETATM   48  C   UNK     0       0.126  -0.653  -9.593  0.00  0.00     0.082 A 
HETATM   49  C   UNK     0      -0.467  -0.034  -9.077  0.00  0.00     0.113 A 
HETATM   50  C   UNK     0       1.373   0.550  -9.602  0.00  0.00     0.082 A 
HETATM   51  C   UNK     0       0.780   1.168  -9.086  0.00  0.00     0.113 A 
HETATM   52  C   UNK     0      -0.140   0.876  -8.824  0.00  0.00     0.106 A 
BRANCH  49  53
HETATM   53  O   UNK     0      -1.387  -0.326  -8.815  0.00  0.00    -0.385 OA
HETATM   54  H   UNK     0      -1.848  -0.305  -9.228  0.00  0.00     0.210 HD
ENDBRANCH  49  53
BRANCH  51  55
HETATM   55  O   UNK     0       1.107   2.078  -8.833  0.00  0.00    -0.385 OA
HETATM   56  H   UNK     0       0.702   2.539  -8.740  0.00  0.00     0.210 HD
ENDBRANCH  51  55
BRANCH  52  57
HETATM   57  O   UNK     0      -0.732   1.495  -8.308  0.00  0.00    -0.386 OA
HETATM   58  H   UNK     0      -1.139   1.266  -7.900  0.00  0.00     0.210 HD
ENDBRANCH  52  57
ENDBRANCH  45  47
ENDBRANCH  13  45
BRANCH  15  59
HETATM   59  C   UNK     0       2.617  -3.398  -8.093  0.00  0.00     0.083 A 
HETATM   60  C   UNK     0       2.518  -2.794  -7.302  0.00  0.00     0.081 A 
HETATM   61  C   UNK     0       2.937  -3.042  -6.428  0.00  0.00     0.113 A 
HETATM   62  C   UNK     0       3.134  -4.250  -8.010  0.00  0.00     0.081 A 
HETATM   63  C   UNK     0       3.552  -4.498  -7.136  0.00  0.00     0.113 A 
HETATM   64  C   UNK     0       3.454  -3.894  -6.345  0.00  0.00     0.106 A 
BRANCH  61  65
HETATM   65  O   UNK     0       2.838  -2.438  -5.638  0.00  0.00    -0.385 OA
HETATM   66  H   UNK     0       3.328  -2.319  -5.276  0.00  0.00     0.210 HD
ENDBRANCH  61  65
BRANCH  63  67
HETATM   67  O   UNK     0       4.069  -5.350  -7.053  0.00  0.00    -0.385 OA
HETATM   68  H   UNK     0       4.165  -5.602  -6.495  0.00  0.00     0.210 HD
ENDBRANCH  63  67
BRANCH  64  69
HETATM   69  O   UNK     0       3.872  -4.142  -5.472  0.00  0.00    -0.386 OA
HETATM   70  H   UNK     0       4.193  -3.720  -5.151  0.00  0.00     0.210 HD
ENDBRANCH  64  69
ENDBRANCH  15  59
BRANCH  25  71
HETATM   71  O   UNK     0      -1.631  -5.479 -16.377  0.00  0.00    -0.385 OA
HETATM   72  H   UNK     0      -2.223  -5.295 -16.396  0.00  0.00     0.210 HD
ENDBRANCH  25  71
BRANCH  26  73
HETATM   73  O   UNK     0      -0.652  -7.897 -14.099  0.00  0.00    -0.384 OA
HETATM   74  H   UNK     0      -0.728  -8.062 -13.506  0.00  0.00     0.210 HD
ENDBRANCH  26  73
BRANCH  28  75
HETATM   75  O   UNK     0      -1.489  -7.402 -15.846  0.00  0.00    -0.383 OA
HETATM   76  H   UNK     0      -1.756  -7.908 -15.609  0.00  0.00     0.210 HD
ENDBRANCH  28  75
BRANCH  24  77
HETATM   77  O   UNK     0       1.787  -8.424  -9.122  0.00  0.00    -0.385 OA
HETATM   78  H   UNK     0       1.468  -8.357  -8.595  0.00  0.00     0.210 HD
ENDBRANCH  24  77
BRANCH  23  79
HETATM   79  O   UNK     0       0.256  -9.355 -12.086  0.00  0.00    -0.385 OA
HETATM   80  H   UNK     0       0.618  -9.834 -12.241  0.00  0.00     0.210 HD
ENDBRANCH  23  79
BRANCH  27  81
HETATM   81  O   UNK     0       1.093  -9.851 -10.338  0.00  0.00    -0.383 OA
HETATM   82  H   UNK     0       0.722 -10.079  -9.897  0.00  0.00     0.210 HD
ENDBRANCH  27  81
TORSDOF 32
ENDMDL
MODEL 6
REMARK VINA RESULT:      -7.3      1.342      5.673
REMARK  32 active torsions:
REMARK  status: ('A' for Active; 'I' for Inactive)
REMARK    1  A    between atoms: O_11  and  C_51 
REMARK    2  A    between atoms: O_12  and  C_52 
REMARK    3  A    between atoms: O_13  and  C_53 
REMARK    4  A    between atoms: O_14  and  C_54 
REMARK    5  A    between atoms: O_15  and  C_55 
REMARK    6  A    between atoms: O_16  and  C_56 
REMARK    7  A    between atoms: O_17  and  C_57 
REMARK    8  A    between atoms: O_18  and  C_58 
REMARK    9  A    between atoms: O_19  and  C_59 
REMARK   10  A    between atoms: O_20  and  C_62 
REMARK   11  A    between atoms: O_21  and  C_63 
REMARK   12  A    between atoms: O_22  and  C_64 
REMARK   13  A    between atoms: O_23  and  C_65 
REMARK   14  A    between atoms: O_24  and  C_66 
REMARK   15  A    between atoms: O_25  and  C_67 
REMARK   16  A    between atoms: C_30  and  C_32 
REMARK   17  A    between atoms: C_31  and  C_33 
REMARK   18  A    between atoms: C_33  and  C_37 
REMARK   19  A    between atoms: C_35  and  C_39 
REMARK   20  A    between atoms: C_41  and  C_44 
REMARK   21  A    between atoms: C_42  and  C_53 
REMARK   22  A    between atoms: C_45  and  C_62 
REMARK   23  A    between atoms: C_47  and  C_63 
REMARK   24  A    between atoms: C_51  and  C_52 
REMARK   25  A    between atoms: C_52  and  C_53 
REMARK   26  A    between atoms: C_56  and  C_57 
REMARK   27  A    between atoms: C_57  and  C_63 
REMARK   28  A    between atoms: C_58  and  C_59 
REMARK   29  A    between atoms: C_59  and  C_64 
REMARK   30  A    between atoms: C_60  and  C_67 
REMARK   31  A    between atoms: C_65  and  C_66 
REMARK   32  A    between atoms: C_66  and  C_67 
ROOT
HETATM    1  O   UNK     0       1.275  -2.870 -12.413  0.00  0.00     0.000 OA
HETATM    2  O   UNK     0       1.234  -5.655 -11.299  0.00  0.00     0.000 OA
HETATM    3  O   UNK     0       0.529  -5.302 -13.137  0.00  0.00    -0.349 OA
HETATM    4  O   UNK     0       1.967  -4.151 -10.204  0.00  0.00     0.000 OA
HETATM    5  O   UNK     0       1.953  -5.079  -9.833  0.00  0.00    -0.224 OA
HETATM    6  O   UNK     0       0.190  -4.198 -14.427  0.00  0.00    -0.413 OA
HETATM    7  O   UNK     0       2.346  -2.470 -10.027  0.00  0.00    -0.304 OA
HETATM    8  C   UNK     0       1.248  -4.727 -11.671  0.00  0.00     0.018 A 
HETATM    9  C   UNK     0       0.895  -4.550 -12.590  0.00  0.00     0.186 A 
HETATM   10  C   UNK     0       1.614  -3.975 -11.123  0.00  0.00     0.057 A 
HETATM   11  C   UNK     0       0.909  -3.622 -12.961  0.00  0.00     0.142 A 
HETATM   12  C   UNK     0       1.628  -3.046 -11.494  0.00  0.00     0.011 A 
HETATM   13  C   UNK     0       0.556  -3.445 -13.880  0.00  0.00     0.487 A 
HETATM   14  C   UNK     0       1.587  -5.832 -10.380  0.00  0.00     0.153 A 
HETATM   15  C   UNK     0       0.176  -5.126 -14.056  0.00  0.00     0.148 A 
HETATM   16  C   UNK     0       2.333  -3.399  -9.656  0.00  0.00     0.099 A 
HETATM   17  C   UNK     0       1.573  -6.760 -10.009  0.00  0.00     0.070 A 
HETATM   18  C   UNK     0       2.686  -3.575  -8.737  0.00  0.00     0.087 A 
HETATM   19  C   UNK     0       1.207  -7.512 -10.557  0.00  0.00     0.082 A 
HETATM   20  C   UNK     0       1.926  -6.936  -9.090  0.00  0.00     0.083 A 
HETATM   21  C   UNK     0       2.672  -4.504  -8.366  0.00  0.00     0.106 A 
HETATM   22  C   UNK     0       3.052  -2.823  -8.189  0.00  0.00     0.089 A 
HETATM   23  C   UNK     0       1.913  -7.865  -8.719  0.00  0.00     0.114 A 
HETATM   24  C   UNK     0       1.194  -8.441 -10.186  0.00  0.00     0.114 A 
HETATM   25  C   UNK     0       3.404  -2.999  -7.270  0.00  0.00     0.118 A 
HETATM   26  C   UNK     0       3.025  -4.680  -7.447  0.00  0.00     0.120 A 
HETATM   27  C   UNK     0       1.546  -8.617  -9.267  0.00  0.00     0.130 A 
HETATM   28  C   UNK     0       3.391  -3.928  -6.899  0.00  0.00     0.131 A 
ENDROOT
BRANCH  12  29
HETATM   29  C   UNK     0       1.994  -2.294 -10.946  0.00  0.00     0.086 A 
HETATM   30  O   UNK     0       1.586  -1.383 -11.011  0.00  0.00     0.000 OA
HETATM   31  C   UNK     0       1.952  -0.631 -10.463  0.00  0.00     0.142 A 
HETATM   32  O   UNK     0       2.726  -0.790  -9.850  0.00  0.00    -0.297 OA
BRANCH  31  33
HETATM   33  C   UNK     0       1.544   0.280 -10.528  0.00  0.00     0.089 A 
HETATM   34  C   UNK     0       1.332   0.670 -11.424  0.00  0.00     0.084 A 
HETATM   35  C   UNK     0       0.924   1.581 -11.489  0.00  0.00     0.115 A 
HETATM   36  C   UNK     0       1.348   0.800  -9.697  0.00  0.00     0.084 A 
HETATM   37  C   UNK     0       0.940   1.711  -9.762  0.00  0.00     0.115 A 
HETATM   38  C   UNK     0       0.728   2.101 -10.658  0.00  0.00     0.107 A 
BRANCH  35  39
HETATM   39  O   UNK     0       0.712   1.971 -12.385  0.00  0.00    -0.385 OA
HETATM   40  H   UNK     0       0.986   2.496 -12.567  0.00  0.00     0.210 HD
ENDBRANCH  35  39
BRANCH  37  41
HETATM   41  O   UNK     0       0.745   2.232  -8.931  0.00  0.00    -0.385 OA
HETATM   42  H   UNK     0       0.301   2.664  -8.934  0.00  0.00     0.210 HD
ENDBRANCH  37  41
BRANCH  38  43
HETATM   43  O   UNK     0       0.321   3.012 -10.723  0.00  0.00    -0.386 OA
HETATM   44  H   UNK     0      -0.162   3.162 -10.364  0.00  0.00     0.210 HD
ENDBRANCH  38  43
ENDBRANCH  31  33
ENDBRANCH  12  29
BRANCH  13  45
HETATM   45  C   UNK     0       0.570  -2.517 -14.251  0.00  0.00     0.019 C 
HETATM   46  O   UNK     0       1.441  -2.084 -14.482  0.00  0.00    -0.324 OA
BRANCH  45  47
HETATM   47  C   UNK     0      -0.288  -2.022 -14.391  0.00  0.00     0.068 A 
HETATM   48  C   UNK     0      -0.918  -2.307 -15.113  0.00  0.00     0.082 A 
HETATM   49  C   UNK     0      -1.775  -1.812 -15.253  0.00  0.00     0.113 A 
HETATM   50  C   UNK     0      -0.515  -1.241 -13.808  0.00  0.00     0.082 A 
HETATM   51  C   UNK     0      -1.373  -0.746 -13.948  0.00  0.00     0.113 A 
HETATM   52  C   UNK     0      -2.003  -1.032 -14.671  0.00  0.00     0.106 A 
BRANCH  49  53
HETATM   53  O   UNK     0      -2.405  -2.098 -15.975  0.00  0.00    -0.385 OA
HETATM   54  H   UNK     0      -2.230  -2.525 -16.389  0.00  0.00     0.210 HD
ENDBRANCH  49  53
BRANCH  51  55
HETATM   55  O   UNK     0      -1.600   0.034 -13.366  0.00  0.00    -0.385 OA
HETATM   56  H   UNK     0      -1.365   0.073 -12.794  0.00  0.00     0.210 HD
ENDBRANCH  51  55
BRANCH  52  57
HETATM   57  O   UNK     0      -2.860  -0.537 -14.810  0.00  0.00    -0.386 OA
HETATM   58  H   UNK     0      -3.241  -0.700 -15.272  0.00  0.00     0.210 HD
ENDBRANCH  52  57
ENDBRANCH  45  47
ENDBRANCH  13  45
BRANCH  15  59
HETATM   59  C   UNK     0      -0.190  -5.878 -14.604  0.00  0.00     0.083 A 
HETATM   60  C   UNK     0       0.416  -6.401 -15.203  0.00  0.00     0.081 A 
HETATM   61  C   UNK     0       0.050  -7.154 -15.751  0.00  0.00     0.113 A 
HETATM   62  C   UNK     0      -1.162  -6.107 -14.553  0.00  0.00     0.081 A 
HETATM   63  C   UNK     0      -1.528  -6.859 -15.101  0.00  0.00     0.113 A 
HETATM   64  C   UNK     0      -0.922  -7.382 -15.700  0.00  0.00     0.106 A 
BRANCH  61  65
HETATM   65  O   UNK     0       0.656  -7.677 -16.351  0.00  0.00    -0.385 OA
HETATM   66  H   UNK     0       0.624  -7.602 -16.965  0.00  0.00     0.210 HD
ENDBRANCH  61  65
BRANCH  63  67
HETATM   67  O   UNK     0      -2.500  -7.088 -15.049  0.00  0.00    -0.385 OA
HETATM   68  H   UNK     0      -2.705  -7.624 -15.283  0.00  0.00     0.210 HD
ENDBRANCH  63  67
BRANCH  64  69
HETATM   69  O   UNK     0      -1.288  -8.135 -16.248  0.00  0.00    -0.386 OA
HETATM   70  H   UNK     0      -1.457  -8.036 -16.836  0.00  0.00     0.210 HD
ENDBRANCH  64  69
ENDBRANCH  15  59
BRANCH  25  71
HETATM   71  O   UNK     0       3.771  -2.247  -6.722  0.00  0.00    -0.385 OA
HETATM   72  H   UNK     0       3.619  -2.198  -6.123  0.00  0.00     0.210 HD
ENDBRANCH  25  71
BRANCH  26  73
HETATM   73  O   UNK     0       3.011  -5.608  -7.076  0.00  0.00    -0.384 OA
HETATM   74  H   UNK     0       2.718  -6.061  -7.382  0.00  0.00     0.210 HD
ENDBRANCH  26  73
BRANCH  28  75
HETATM   75  O   UNK     0       3.744  -4.104  -5.980  0.00  0.00    -0.383 OA
HETATM   76  H   UNK     0       3.351  -4.169  -5.504  0.00  0.00     0.210 HD
ENDBRANCH  28  75
BRANCH  24  77
HETATM   77  O   UNK     0       0.828  -9.193 -10.734  0.00  0.00    -0.385 OA
HETATM   78  H   UNK     0       0.625  -9.086 -11.310  0.00  0.00     0.210 HD
ENDBRANCH  24  77
BRANCH  23  79
HETATM   79  O   UNK     0       2.265  -8.041  -7.800  0.00  0.00    -0.385 OA
HETATM   80  H   UNK     0       2.049  -8.520  -7.472  0.00  0.00     0.210 HD
ENDBRANCH  23  79
BRANCH  27  81
HETATM   81  O   UNK     0       1.533  -9.545  -8.896  0.00  0.00    -0.383 OA
HETATM   82  H   UNK     0       1.462  -9.635  -8.287  0.00  0.00     0.210 HD
ENDBRANCH  27  81
TORSDOF 32
ENDMDL
MODEL 7
REMARK VINA RESULT:      -7.1      1.412      6.207
REMARK  32 active torsions:
REMARK  status: ('A' for Active; 'I' for Inactive)
REMARK    1  A    between atoms: O_11  and  C_51 
REMARK    2  A    between atoms: O_12  and  C_52 
REMARK    3  A    between atoms: O_13  and  C_53 
REMARK    4  A    between atoms: O_14  and  C_54 
REMARK    5  A    between atoms: O_15  and  C_55 
REMARK    6  A    between atoms: O_16  and  C_56 
REMARK    7  A    between atoms: O_17  and  C_57 
REMARK    8  A    between atoms: O_18  and  C_58 
REMARK    9  A    between atoms: O_19  and  C_59 
REMARK   10  A    between atoms: O_20  and  C_62 
REMARK   11  A    between atoms: O_21  and  C_63 
REMARK   12  A    between atoms: O_22  and  C_64 
REMARK   13  A    between atoms: O_23  and  C_65 
REMARK   14  A    between atoms: O_24  and  C_66 
REMARK   15  A    between atoms: O_25  and  C_67 
REMARK   16  A    between atoms: C_30  and  C_32 
REMARK   17  A    between atoms: C_31  and  C_33 
REMARK   18  A    between atoms: C_33  and  C_37 
REMARK   19  A    between atoms: C_35  and  C_39 
REMARK   20  A    between atoms: C_41  and  C_44 
REMARK   21  A    between atoms: C_42  and  C_53 
REMARK   22  A    between atoms: C_45  and  C_62 
REMARK   23  A    between atoms: C_47  and  C_63 
REMARK   24  A    between atoms: C_51  and  C_52 
REMARK   25  A    between atoms: C_52  and  C_53 
REMARK   26  A    between atoms: C_56  and  C_57 
REMARK   27  A    between atoms: C_57  and  C_63 
REMARK   28  A    between atoms: C_58  and  C_59 
REMARK   29  A    between atoms: C_59  and  C_64 
REMARK   30  A    between atoms: C_60  and  C_67 
REMARK   31  A    between atoms: C_65  and  C_66 
REMARK   32  A    between atoms: C_66  and  C_67 
ROOT
HETATM    1  O   UNK     0       1.777  -4.000 -12.934  0.00  0.00     0.000 OA
HETATM    2  O   UNK     0       0.461  -1.766 -11.425  0.00  0.00     0.000 OA
HETATM    3  O   UNK     0       0.283  -1.869 -13.414  0.00  0.00    -0.349 OA
HETATM    4  O   UNK     0       1.516  -3.152 -10.442  0.00  0.00     0.000 OA
HETATM    5  O   UNK     0       1.077  -2.407  -9.939  0.00  0.00    -0.224 OA
HETATM    6  O   UNK     0       0.633  -2.666 -14.912  0.00  0.00    -0.413 OA
HETATM    7  O   UNK     0       2.482  -4.589 -10.454  0.00  0.00    -0.304 OA
HETATM    8  C   UNK     0       0.899  -2.511 -11.928  0.00  0.00     0.018 A 
HETATM    9  C   UNK     0       0.810  -2.562 -12.923  0.00  0.00     0.186 A 
HETATM   10  C   UNK     0       1.427  -3.203 -11.437  0.00  0.00     0.057 A 
HETATM   11  C   UNK     0       1.249  -3.307 -13.426  0.00  0.00     0.142 A 
HETATM   12  C   UNK     0       1.866  -3.948 -11.940  0.00  0.00     0.011 A 
HETATM   13  C   UNK     0       1.160  -3.359 -14.421  0.00  0.00     0.487 A 
HETATM   14  C   UNK     0       0.549  -1.714 -10.430  0.00  0.00     0.153 A 
HETATM   15  C   UNK     0       0.194  -1.921 -14.409  0.00  0.00     0.148 A 
HETATM   16  C   UNK     0       2.043  -3.845  -9.950  0.00  0.00     0.099 A 
HETATM   17  C   UNK     0       0.111  -0.970  -9.927  0.00  0.00     0.070 A 
HETATM   18  C   UNK     0       2.132  -3.793  -8.956  0.00  0.00     0.087 A 
HETATM   19  C   UNK     0      -0.417  -0.277 -10.419  0.00  0.00     0.082 A 
HETATM   20  C   UNK     0       0.199  -0.918  -8.933  0.00  0.00     0.083 A 
HETATM   21  C   UNK     0       1.693  -3.048  -8.453  0.00  0.00     0.106 A 
HETATM   22  C   UNK     0       2.660  -4.486  -8.464  0.00  0.00     0.089 A 
HETATM   23  C   UNK     0      -0.239  -0.174  -8.429  0.00  0.00     0.114 A 
HETATM   24  C   UNK     0      -0.856   0.468  -9.916  0.00  0.00     0.114 A 
HETATM   25  C   UNK     0       2.748  -4.434  -7.470  0.00  0.00     0.118 A 
HETATM   26  C   UNK     0       1.782  -2.997  -7.458  0.00  0.00     0.120 A 
HETATM   27  C   UNK     0      -0.767   0.519  -8.921  0.00  0.00     0.130 A 
HETATM   28  C   UNK     0       2.310  -3.689  -6.966  0.00  0.00     0.131 A 
ENDROOT
BRANCH  12  29
HETATM   29  C   UNK     0       2.393  -4.641 -11.448  0.00  0.00     0.086 A 
HETATM   30  O   UNK     0       2.510  -5.553 -11.842  0.00  0.00     0.000 OA
HETATM   31  C   UNK     0       3.037  -6.246 -11.350  0.00  0.00     0.142 A 
HETATM   32  O   UNK     0       3.448  -6.026 -10.465  0.00  0.00    -0.297 OA
BRANCH  31  33
HETATM   33  C   UNK     0       3.154  -7.157 -11.744  0.00  0.00     0.089 A 
HETATM   34  C   UNK     0       3.553  -7.262 -12.655  0.00  0.00     0.084 A 
HETATM   35  C   UNK     0       3.670  -8.174 -13.048  0.00  0.00     0.115 A 
HETATM   36  C   UNK     0       2.872  -7.965 -11.226  0.00  0.00     0.084 A 
HETATM   37  C   UNK     0       2.989  -8.877 -11.620  0.00  0.00     0.115 A 
HETATM   38  C   UNK     0       3.388  -8.981 -12.531  0.00  0.00     0.107 A 
BRANCH  35  39
HETATM   39  O   UNK     0       4.069  -8.278 -13.959  0.00  0.00    -0.385 OA
HETATM   40  H   UNK     0       3.704  -8.268 -14.460  0.00  0.00     0.210 HD
ENDBRANCH  35  39
BRANCH  37  41
HETATM   41  O   UNK     0       2.706  -9.685 -11.102  0.00  0.00    -0.385 OA
HETATM   42  H   UNK     0       2.699  -9.669 -10.482  0.00  0.00     0.210 HD
ENDBRANCH  37  41
BRANCH  38  43
HETATM   43  O   UNK     0       3.504  -9.893 -12.924  0.00  0.00    -0.386 OA
HETATM   44  H   UNK     0       3.383  -9.990 -13.524  0.00  0.00     0.210 HD
ENDBRANCH  38  43
ENDBRANCH  31  33
ENDBRANCH  12  29
BRANCH  13  45
HETATM   45  C   UNK     0       1.599  -4.103 -14.924  0.00  0.00     0.019 C 
HETATM   46  O   UNK     0       2.569  -4.044 -15.159  0.00  0.00    -0.324 OA
BRANCH  45  47
HETATM   47  C   UNK     0       1.068  -4.906 -15.192  0.00  0.00     0.068 A 
HETATM   48  C   UNK     0       0.186  -4.792 -15.650  0.00  0.00     0.082 A 
HETATM   49  C   UNK     0      -0.345  -5.596 -15.919  0.00  0.00     0.113 A 
HETATM   50  C   UNK     0       1.418  -5.824 -15.003  0.00  0.00     0.082 A 
HETATM   51  C   UNK     0       0.886  -6.627 -15.271  0.00  0.00     0.113 A 
HETATM   52  C   UNK     0       0.005  -6.513 -15.729  0.00  0.00     0.106 A 
BRANCH  49  53
HETATM   53  O   UNK     0      -1.227  -5.482 -16.377  0.00  0.00    -0.385 OA
HETATM   54  H   UNK     0      -1.295  -5.050 -16.816  0.00  0.00     0.210 HD
ENDBRANCH  49  53
BRANCH  51  55
HETATM   55  O   UNK     0       1.236  -7.544 -15.082  0.00  0.00    -0.385 OA
HETATM   56  H   UNK     0       1.594  -7.832 -15.499  0.00  0.00     0.210 HD
ENDBRANCH  51  55
BRANCH  52  57
HETATM   57  O   UNK     0      -0.527  -7.317 -15.998  0.00  0.00    -0.386 OA
HETATM   58  H   UNK     0      -0.568  -7.803 -15.615  0.00  0.00     0.210 HD
ENDBRANCH  52  57
ENDBRANCH  45  47
ENDBRANCH  13  45
BRANCH  15  59
HETATM   59  C   UNK     0      -0.333  -1.228 -14.901  0.00  0.00     0.083 A 
HETATM   60  C   UNK     0       0.125  -0.420 -15.270  0.00  0.00     0.081 A 
HETATM   61  C   UNK     0      -0.403   0.273 -15.762  0.00  0.00     0.113 A 
HETATM   62  C   UNK     0      -1.319  -1.344 -15.023  0.00  0.00     0.081 A 
HETATM   63  C   UNK     0      -1.847  -0.651 -15.514  0.00  0.00     0.113 A 
HETATM   64  C   UNK     0      -1.389   0.157 -15.884  0.00  0.00     0.106 A 
BRANCH  61  65
HETATM   65  O   UNK     0       0.055   1.082 -16.131  0.00  0.00    -0.385 OA
HETATM   66  H   UNK     0       0.287   1.509 -15.746  0.00  0.00     0.210 HD
ENDBRANCH  61  65
BRANCH  63  67
HETATM   67  O   UNK     0      -2.832  -0.767 -15.637  0.00  0.00    -0.385 OA
HETATM   68  H   UNK     0      -3.142  -1.175 -15.287  0.00  0.00     0.210 HD
ENDBRANCH  63  67
BRANCH  64  69
HETATM   69  O   UNK     0      -1.916   0.850 -16.375  0.00  0.00    -0.386 OA
HETATM   70  H   UNK     0      -2.234   0.694 -16.884  0.00  0.00     0.210 HD
ENDBRANCH  64  69
ENDBRANCH  15  59
BRANCH  25  71
HETATM   71  O   UNK     0       3.276  -5.127  -6.978  0.00  0.00    -0.385 OA
HETATM   72  H   UNK     0       3.816  -5.326  -7.208  0.00  0.00     0.210 HD
ENDBRANCH  25  71
BRANCH  26  73
HETATM   73  O   UNK     0       1.343  -2.252  -6.955  0.00  0.00    -0.384 OA
HETATM   74  H   UNK     0       1.663  -1.935  -6.529  0.00  0.00     0.210 HD
ENDBRANCH  26  73
BRANCH  28  75
HETATM   75  O   UNK     0       2.398  -3.638  -5.972  0.00  0.00    -0.383 OA
HETATM   76  H   UNK     0       2.666  -4.102  -5.660  0.00  0.00     0.210 HD
ENDBRANCH  28  75
BRANCH  24  77
HETATM   77  O   UNK     0      -1.383   1.160 -10.407  0.00  0.00    -0.385 OA
HETATM   78  H   UNK     0      -1.958   1.033 -10.600  0.00  0.00     0.210 HD
ENDBRANCH  24  77
BRANCH  23  79
HETATM   79  O   UNK     0      -0.151  -0.122  -7.435  0.00  0.00    -0.385 OA
HETATM   80  H   UNK     0      -0.187  -0.638  -7.093  0.00  0.00     0.210 HD
ENDBRANCH  23  79
BRANCH  27  81
HETATM   81  O   UNK     0      -1.206   1.264  -8.418  0.00  0.00    -0.383 OA
HETATM   82  H   UNK     0      -0.889   1.781  -8.291  0.00  0.00     0.210 HD
ENDBRANCH  27  81
TORSDOF 32
ENDMDL
MODEL 8
REMARK VINA RESULT:      -6.9      1.585      6.409
REMARK  32 active torsions:
REMARK  status: ('A' for Active; 'I' for Inactive)
REMARK    1  A    between atoms: O_11  and  C_51 
REMARK    2  A    between atoms: O_12  and  C_52 
REMARK    3  A    between atoms: O_13  and  C_53 
REMARK    4  A    between atoms: O_14  and  C_54 
REMARK    5  A    between atoms: O_15  and  C_55 
REMARK    6  A    between atoms: O_16  and  C_56 
REMARK    7  A    between atoms: O_17  and  C_57 
REMARK    8  A    between atoms: O_18  and  C_58 
REMARK    9  A    between atoms: O_19  and  C_59 
REMARK   10  A    between atoms: O_20  and  C_62 
REMARK   11  A    between atoms: O_21  and  C_63 
REMARK   12  A    between atoms: O_22  and  C_64 
REMARK   13  A    between atoms: O_23  and  C_65 
REMARK   14  A    between atoms: O_24  and  C_66 
REMARK   15  A    between atoms: O_25  and  C_67 
REMARK   16  A    between atoms: C_30  and  C_32 
REMARK   17  A    between atoms: C_31  and  C_33 
REMARK   18  A    between atoms: C_33  and  C_37 
REMARK   19  A    between atoms: C_35  and  C_39 
REMARK   20  A    between atoms: C_41  and  C_44 
REMARK   21  A    between atoms: C_42  and  C_53 
REMARK   22  A    between atoms: C_45  and  C_62 
REMARK   23  A    between atoms: C_47  and  C_63 
REMARK   24  A    between atoms: C_51  and  C_52 
REMARK   25  A    between atoms: C_52  and  C_53 
REMARK   26  A    between atoms: C_56  and  C_57 
REMARK   27  A    between atoms: C_57  and  C_63 
REMARK   28  A    between atoms: C_58  and  C_59 
REMARK   29  A    between atoms: C_59  and  C_64 
REMARK   30  A    between atoms: C_60  and  C_67 
REMARK   31  A    between atoms: C_65  and  C_66 
REMARK   32  A    between atoms: C_66  and  C_67 
ROOT
HETATM    1  O   UNK     0       1.070  -3.914 -13.049  0.00  0.00     0.000 OA
HETATM    2  O   UNK     0       2.320  -3.292 -10.393  0.00  0.00     0.000 OA
HETATM    3  O   UNK     0       2.158  -1.862 -11.782  0.00  0.00    -0.349 OA
HETATM    4  O   UNK     0       1.648  -5.137 -10.775  0.00  0.00     0.000 OA
HETATM    5  O   UNK     0       2.065  -4.930  -9.890  0.00  0.00    -0.224 OA
HETATM    6  O   UNK     0       1.661  -1.354 -13.361  0.00  0.00    -0.413 OA
HETATM    7  O   UNK     0       0.895  -6.266 -11.851  0.00  0.00    -0.304 OA
HETATM    8  C   UNK     0       1.903  -3.500 -11.279  0.00  0.00     0.018 A 
HETATM    9  C   UNK     0       1.822  -2.784 -11.973  0.00  0.00     0.186 A 
HETATM   10  C   UNK     0       1.567  -4.422 -11.470  0.00  0.00     0.057 A 
HETATM   11  C   UNK     0       1.406  -2.991 -12.858  0.00  0.00     0.142 A 
HETATM   12  C   UNK     0       1.150  -4.629 -12.355  0.00  0.00     0.011 A 
HETATM   13  C   UNK     0       1.325  -2.276 -13.552  0.00  0.00     0.487 A 
HETATM   14  C   UNK     0       2.401  -4.008  -9.699  0.00  0.00     0.153 A 
HETATM   15  C   UNK     0       2.078  -1.147 -12.476  0.00  0.00     0.148 A 
HETATM   16  C   UNK     0       1.312  -6.059 -10.966  0.00  0.00     0.099 A 
HETATM   17  C   UNK     0       2.817  -3.801  -8.814  0.00  0.00     0.070 A 
HETATM   18  C   UNK     0       1.393  -6.775 -10.272  0.00  0.00     0.087 A 
HETATM   19  C   UNK     0       3.153  -2.878  -8.623  0.00  0.00     0.082 A 
HETATM   20  C   UNK     0       2.898  -4.516  -8.120  0.00  0.00     0.083 A 
HETATM   21  C   UNK     0       1.809  -6.567  -9.387  0.00  0.00     0.106 A 
HETATM   22  C   UNK     0       1.057  -7.697 -10.463  0.00  0.00     0.089 A 
HETATM   23  C   UNK     0       3.315  -4.309  -7.235  0.00  0.00     0.114 A 
HETATM   24  C   UNK     0       3.570  -2.671  -7.738  0.00  0.00     0.114 A 
HETATM   25  C   UNK     0       1.137  -8.412  -9.769  0.00  0.00     0.118 A 
HETATM   26  C   UNK     0       1.890  -7.283  -8.693  0.00  0.00     0.120 A 
HETATM   27  C   UNK     0       3.651  -3.387  -7.044  0.00  0.00     0.130 A 
HETATM   28  C   UNK     0       1.554  -8.205  -8.884  0.00  0.00     0.131 A 
ENDROOT
BRANCH  12  29
HETATM   29  C   UNK     0       0.814  -5.551 -12.546  0.00  0.00     0.086 A 
HETATM   30  O   UNK     0       0.144  -5.698 -13.272  0.00  0.00     0.000 OA
HETATM   31  C   UNK     0      -0.193  -6.621 -13.463  0.00  0.00     0.142 A 
HETATM   32  O   UNK     0       0.142  -7.396 -12.928  0.00  0.00    -0.297 OA
BRANCH  31  33
HETATM   33  C   UNK     0      -0.863  -6.768 -14.190  0.00  0.00     0.089 A 
HETATM   34  C   UNK     0      -0.966  -6.092 -14.920  0.00  0.00     0.084 A 
HETATM   35  C   UNK     0      -1.637  -6.239 -15.647  0.00  0.00     0.115 A 
HETATM   36  C   UNK     0      -1.431  -7.591 -14.187  0.00  0.00     0.084 A 
HETATM   37  C   UNK     0      -2.102  -7.738 -14.914  0.00  0.00     0.115 A 
HETATM   38  C   UNK     0      -2.205  -7.062 -15.644  0.00  0.00     0.107 A 
BRANCH  35  39
HETATM   39  O   UNK     0      -1.740  -5.564 -16.377  0.00  0.00    -0.385 OA
HETATM   40  H   UNK     0      -1.521  -5.684 -16.944  0.00  0.00     0.210 HD
ENDBRANCH  35  39
BRANCH  37  41
HETATM   41  O   UNK     0      -2.670  -8.561 -14.911  0.00  0.00    -0.385 OA
HETATM   42  H   UNK     0      -2.626  -8.967 -14.444  0.00  0.00     0.210 HD
ENDBRANCH  37  41
BRANCH  38  43
HETATM   43  O   UNK     0      -2.876  -7.210 -16.371  0.00  0.00    -0.386 OA
HETATM   44  H   UNK     0      -3.469  -7.317 -16.228  0.00  0.00     0.210 HD
ENDBRANCH  38  43
ENDBRANCH  31  33
ENDBRANCH  12  29
BRANCH  13  45
HETATM   45  C   UNK     0       0.908  -2.483 -14.437  0.00  0.00     0.019 C 
HETATM   46  O   UNK     0       1.378  -3.086 -15.082  0.00  0.00    -0.324 OA
BRANCH  45  47
HETATM   47  C   UNK     0       0.022  -2.087 -14.677  0.00  0.00     0.068 A 
HETATM   48  C   UNK     0      -0.802  -2.372 -14.188  0.00  0.00     0.082 A 
HETATM   49  C   UNK     0      -1.688  -1.976 -14.428  0.00  0.00     0.113 A 
HETATM   50  C   UNK     0      -0.040  -1.406 -15.407  0.00  0.00     0.082 A 
HETATM   51  C   UNK     0      -0.926  -1.010 -15.647  0.00  0.00     0.113 A 
HETATM   52  C   UNK     0      -1.750  -1.295 -15.158  0.00  0.00     0.106 A 
BRANCH  49  53
HETATM   53  O   UNK     0      -2.513  -2.261 -13.939  0.00  0.00    -0.385 OA
HETATM   54  H   UNK     0      -2.848  -1.843 -13.628  0.00  0.00     0.210 HD
ENDBRANCH  49  53
BRANCH  51  55
HETATM   55  O   UNK     0      -0.988  -0.329 -16.377  0.00  0.00    -0.385 OA
HETATM   56  H   UNK     0      -1.300  -0.459 -16.897  0.00  0.00     0.210 HD
ENDBRANCH  51  55
BRANCH  52  57
HETATM   57  O   UNK     0      -2.637  -0.899 -15.398  0.00  0.00    -0.386 OA
HETATM   58  H   UNK     0      -2.805  -0.350 -15.164  0.00  0.00     0.210 HD
ENDBRANCH  52  57
ENDBRANCH  45  47
ENDBRANCH  13  45
BRANCH  15  59
HETATM   59  C   UNK     0       2.414  -0.224 -12.285  0.00  0.00     0.083 A 
HETATM   60  C   UNK     0       2.664   0.383 -13.039  0.00  0.00     0.081 A 
HETATM   61  C   UNK     0       3.000   1.305 -12.848  0.00  0.00     0.113 A 
HETATM   62  C   UNK     0       2.500   0.091 -11.340  0.00  0.00     0.081 A 
HETATM   63  C   UNK     0       2.836   1.013 -11.149  0.00  0.00     0.113 A 
HETATM   64  C   UNK     0       3.086   1.620 -11.903  0.00  0.00     0.106 A 
BRANCH  61  65
HETATM   65  O   UNK     0       3.250   1.912 -13.602  0.00  0.00    -0.385 OA
HETATM   66  H   UNK     0       3.573   2.429 -13.490  0.00  0.00     0.210 HD
ENDBRANCH  61  65
BRANCH  63  67
HETATM   67  O   UNK     0       2.922   1.328 -10.204  0.00  0.00    -0.385 OA
HETATM   68  H   UNK     0       2.417   1.379  -9.847  0.00  0.00     0.210 HD
ENDBRANCH  63  67
BRANCH  64  69
HETATM   69  O   UNK     0       3.422   2.542 -11.712  0.00  0.00    -0.386 OA
HETATM   70  H   UNK     0       4.017   2.683 -11.816  0.00  0.00     0.210 HD
ENDBRANCH  64  69
ENDBRANCH  15  59
BRANCH  25  71
HETATM   71  O   UNK     0       0.801  -9.334  -9.960  0.00  0.00    -0.385 OA
HETATM   72  H   UNK     0       0.925  -9.603 -10.505  0.00  0.00     0.210 HD
ENDBRANCH  25  71
BRANCH  26  73
HETATM   73  O   UNK     0       2.307  -7.076  -7.808  0.00  0.00    -0.384 OA
HETATM   74  H   UNK     0       1.953  -6.885  -7.336  0.00  0.00     0.210 HD
ENDBRANCH  26  73
BRANCH  28  75
HETATM   75  O   UNK     0       1.635  -8.920  -8.190  0.00  0.00    -0.383 OA
HETATM   76  H   UNK     0       1.943  -8.808  -7.663  0.00  0.00     0.210 HD
ENDBRANCH  28  75
BRANCH  24  77
HETATM   77  O   UNK     0       3.906  -1.749  -7.547  0.00  0.00    -0.385 OA
HETATM   78  H   UNK     0       4.515  -1.646  -7.495  0.00  0.00     0.210 HD
ENDBRANCH  24  77
BRANCH  23  79
HETATM   79  O   UNK     0       3.396  -5.024  -6.541  0.00  0.00    -0.385 OA
HETATM   80  H   UNK     0       3.152  -4.938  -5.977  0.00  0.00     0.210 HD
ENDBRANCH  23  79
BRANCH  27  81
HETATM   81  O   UNK     0       4.068  -3.180  -6.159  0.00  0.00    -0.383 OA
HETATM   82  H   UNK     0       4.543  -2.783  -6.125  0.00  0.00     0.210 HD
ENDBRANCH  27  81
TORSDOF 32
ENDMDL
MODEL 9
REMARK VINA RESULT:      -6.8      2.440      7.126
REMARK  32 active torsions:
REMARK  status: ('A' for Active; 'I' for Inactive)
REMARK    1  A    between atoms: O_11  and  C_51 
REMARK    2  A    between atoms: O_12  and  C_52 
REMARK    3  A    between atoms: O_13  and  C_53 
REMARK    4  A    between atoms: O_14  and  C_54 
REMARK    5  A    between atoms: O_15  and  C_55 
REMARK    6  A    between atoms: O_16  and  C_56 
REMARK    7  A    between atoms: O_17  and  C_57 
REMARK    8  A    between atoms: O_18  and  C_58 
REMARK    9  A    between atoms: O_19  and  C_59 
REMARK   10  A    between atoms: O_20  and  C_62 
REMARK   11  A    between atoms: O_21  and  C_63 
REMARK   12  A    between atoms: O_22  and  C_64 
REMARK   13  A    between atoms: O_23  and  C_65 
REMARK   14  A    between atoms: O_24  and  C_66 
REMARK   15  A    between atoms: O_25  and  C_67 
REMARK   16  A    between atoms: C_30  and  C_32 
REMARK   17  A    between atoms: C_31  and  C_33 
REMARK   18  A    between atoms: C_33  and  C_37 
REMARK   19  A    between atoms: C_35  and  C_39 
REMARK   20  A    between atoms: C_41  and  C_44 
REMARK   21  A    between atoms: C_42  and  C_53 
REMARK   22  A    between atoms: C_45  and  C_62 
REMARK   23  A    between atoms: C_47  and  C_63 
REMARK   24  A    between atoms: C_51  and  C_52 
REMARK   25  A    between atoms: C_52  and  C_53 
REMARK   26  A    between atoms: C_56  and  C_57 
REMARK   27  A    between atoms: C_57  and  C_63 
REMARK   28  A    between atoms: C_58  and  C_59 
REMARK   29  A    between atoms: C_59  and  C_64 
REMARK   30  A    between atoms: C_60  and  C_67 
REMARK   31  A    between atoms: C_65  and  C_66 
REMARK   32  A    between atoms: C_66  and  C_67 
ROOT
HETATM    1  O   UNK     0       1.353  -1.135 -13.991  0.00  0.00     0.000 OA
HETATM    2  O   UNK     0       2.299   1.147 -12.288  0.00  0.00     0.000 OA
HETATM    3  O   UNK     0       1.542   1.502 -14.105  0.00  0.00    -0.349 OA
HETATM    4  O   UNK     0       2.425  -0.729 -11.607  0.00  0.00     0.000 OA
HETATM    5  O   UNK     0       2.741   0.031 -11.039  0.00  0.00    -0.224 OA
HETATM    6  O   UNK     0       0.848   0.919 -15.581  0.00  0.00    -0.413 OA
HETATM    7  O   UNK     0       2.173  -2.428 -11.834  0.00  0.00    -0.304 OA
HETATM    8  C   UNK     0       1.984   0.386 -12.856  0.00  0.00     0.018 A 
HETATM    9  C   UNK     0       1.605   0.564 -13.764  0.00  0.00     0.186 A 
HETATM   10  C   UNK     0       2.047  -0.552 -12.515  0.00  0.00     0.057 A 
HETATM   11  C   UNK     0       1.290  -0.197 -14.332  0.00  0.00     0.142 A 
HETATM   12  C   UNK     0       1.731  -1.312 -13.083  0.00  0.00     0.011 A 
HETATM   13  C   UNK     0       0.911  -0.019 -15.241  0.00  0.00     0.487 A 
HETATM   14  C   UNK     0       2.677   0.969 -11.380  0.00  0.00     0.153 A 
HETATM   15  C   UNK     0       1.164   1.679 -15.014  0.00  0.00     0.148 A 
HETATM   16  C   UNK     0       2.488  -1.667 -11.266  0.00  0.00     0.099 A 
HETATM   17  C   UNK     0       2.993   1.729 -10.812  0.00  0.00     0.070 A 
HETATM   18  C   UNK     0       2.867  -1.845 -10.358  0.00  0.00     0.087 A 
HETATM   19  C   UNK     0       2.930   2.667 -11.153  0.00  0.00     0.082 A 
HETATM   20  C   UNK     0       3.371   1.552  -9.904  0.00  0.00     0.083 A 
HETATM   21  C   UNK     0       3.182  -1.085  -9.790  0.00  0.00     0.106 A 
HETATM   22  C   UNK     0       2.930  -2.783 -10.017  0.00  0.00     0.089 A 
HETATM   23  C   UNK     0       3.687   2.312  -9.336  0.00  0.00     0.114 A 
HETATM   24  C   UNK     0       3.245   3.428 -10.585  0.00  0.00     0.114 A 
HETATM   25  C   UNK     0       3.308  -2.961  -9.109  0.00  0.00     0.118 A 
HETATM   26  C   UNK     0       3.561  -1.262  -8.882  0.00  0.00     0.120 A 
HETATM   27  C   UNK     0       3.624   3.250  -9.677  0.00  0.00     0.130 A 
HETATM   28  C   UNK     0       3.624  -2.200  -8.541  0.00  0.00     0.131 A 
ENDROOT
BRANCH  12  29
HETATM   29  C   UNK     0       1.794  -2.250 -12.742  0.00  0.00     0.086 A 
HETATM   30  O   UNK     0       1.204  -2.962 -13.124  0.00  0.00     0.000 OA
HETATM   31  C   UNK     0       1.267  -3.900 -12.783  0.00  0.00     0.142 A 
HETATM   32  O   UNK     0       1.921  -4.126 -12.061  0.00  0.00    -0.297 OA
BRANCH  31  33
HETATM   33  C   UNK     0       0.677  -4.611 -13.165  0.00  0.00     0.089 A 
HETATM   34  C   UNK     0       0.997  -5.169 -13.930  0.00  0.00     0.084 A 
HETATM   35  C   UNK     0       0.407  -5.880 -14.312  0.00  0.00     0.115 A 
HETATM   36  C   UNK     0      -0.233  -4.765 -12.780  0.00  0.00     0.084 A 
HETATM   37  C   UNK     0      -0.824  -5.476 -13.162  0.00  0.00     0.115 A 
HETATM   38  C   UNK     0      -0.504  -6.034 -13.928  0.00  0.00     0.107 A 
BRANCH  35  39
HETATM   39  O   UNK     0       0.727  -6.438 -15.077  0.00  0.00    -0.385 OA
HETATM   40  H   UNK     0       0.807  -7.049 -15.004  0.00  0.00     0.210 HD
ENDBRANCH  35  39
BRANCH  37  41
HETATM   41  O   UNK     0      -1.734  -5.629 -12.778  0.00  0.00    -0.385 OA
HETATM   42  H   UNK     0      -2.182  -5.873 -13.130  0.00  0.00     0.210 HD
ENDBRANCH  37  41
BRANCH  38  43
HETATM   43  O   UNK     0      -1.094  -6.745 -14.309  0.00  0.00    -0.386 OA
HETATM   44  H   UNK     0      -1.135  -6.817 -14.923  0.00  0.00     0.210 HD
ENDBRANCH  38  43
ENDBRANCH  31  33
ENDBRANCH  12  29
BRANCH  13  45
HETATM   45  C   UNK     0       0.596  -0.780 -15.808  0.00  0.00     0.019 C 
HETATM   46  O   UNK     0       1.247  -1.284 -16.375  0.00  0.00    -0.324 OA
BRANCH  45  47
HETATM   47  C   UNK     0      -0.371  -1.036 -15.809  0.00  0.00     0.068 A 
HETATM   48  C   UNK     0      -1.068  -0.358 -15.575  0.00  0.00     0.082 A 
HETATM   49  C   UNK     0      -2.034  -0.615 -15.575  0.00  0.00     0.113 A 
HETATM   50  C   UNK     0      -0.640  -1.970 -16.043  0.00  0.00     0.082 A 
HETATM   51  C   UNK     0      -1.607  -2.226 -16.044  0.00  0.00     0.113 A 
HETATM   52  C   UNK     0      -2.304  -1.549 -15.810  0.00  0.00     0.106 A 
BRANCH  49  53
HETATM   53  O   UNK     0      -2.731   0.063 -15.341  0.00  0.00    -0.385 OA
HETATM   54  H   UNK     0      -3.250   0.104 -15.679  0.00  0.00     0.210 HD
ENDBRANCH  49  53
BRANCH  51  55
HETATM   55  O   UNK     0      -1.876  -3.160 -16.278  0.00  0.00    -0.385 OA
HETATM   56  H   UNK     0      -2.339  -3.436 -15.971  0.00  0.00     0.210 HD
ENDBRANCH  51  55
BRANCH  52  57
HETATM   57  O   UNK     0      -3.270  -1.805 -15.810  0.00  0.00    -0.386 OA
HETATM   58  H   UNK     0      -3.680  -1.468 -16.130  0.00  0.00     0.210 HD
ENDBRANCH  52  57
ENDBRANCH  45  47
ENDBRANCH  13  45
BRANCH  15  59
HETATM   59  C   UNK     0       1.101   2.617 -15.354  0.00  0.00     0.083 A 
HETATM   60  C   UNK     0       1.918   3.082 -15.695  0.00  0.00     0.081 A 
HETATM   61  C   UNK     0       1.855   4.020 -16.036  0.00  0.00     0.113 A 
HETATM   62  C   UNK     0       0.220   3.091 -15.354  0.00  0.00     0.081 A 
HETATM   63  C   UNK     0       0.157   4.029 -15.695  0.00  0.00     0.113 A 
HETATM   64  C   UNK     0       0.974   4.493 -16.036  0.00  0.00     0.106 A 
BRANCH  61  65
HETATM   65  O   UNK     0       2.673   4.484 -16.377  0.00  0.00    -0.385 OA
HETATM   66  H   UNK     0       3.156   4.152 -16.579  0.00  0.00     0.210 HD
ENDBRANCH  61  65
BRANCH  63  67
HETATM   67  O   UNK     0      -0.724   4.503 -15.695  0.00  0.00    -0.385 OA
HETATM   68  H   UNK     0      -1.094   4.470 -15.199  0.00  0.00     0.210 HD
ENDBRANCH  63  67
BRANCH  64  69
HETATM   69  O   UNK     0       0.911   5.431 -16.377  0.00  0.00    -0.386 OA
HETATM   70  H   UNK     0       0.656   5.873 -16.024  0.00  0.00     0.210 HD
ENDBRANCH  64  69
ENDBRANCH  15  59
BRANCH  25  71
HETATM   71  O   UNK     0       3.371  -3.899  -8.768  0.00  0.00    -0.385 OA
HETATM   72  H   UNK     0       2.981  -4.096  -8.329  0.00  0.00     0.210 HD
ENDBRANCH  25  71
BRANCH  26  73
HETATM   73  O   UNK     0       3.876  -0.502  -8.314  0.00  0.00    -0.384 OA
HETATM   74  H   UNK     0       3.664   0.072  -8.418  0.00  0.00     0.210 HD
ENDBRANCH  26  73
BRANCH  28  75
HETATM   75  O   UNK     0       4.002  -2.378  -7.633  0.00  0.00    -0.383 OA
HETATM   76  H   UNK     0       4.284  -1.922  -7.320  0.00  0.00     0.210 HD
ENDBRANCH  28  75
BRANCH  24  77
HETATM   77  O   UNK     0       3.182   4.366 -10.926  0.00  0.00    -0.385 OA
HETATM   78  H   UNK     0       2.653   4.683 -10.866  0.00  0.00     0.210 HD
ENDBRANCH  24  77
BRANCH  23  79
HETATM   79  O   UNK     0       4.065   2.135  -8.428  0.00  0.00    -0.385 OA
HETATM   80  H   UNK     0       3.880   2.474  -7.943  0.00  0.00     0.210 HD
ENDBRANCH  23  79
BRANCH  27  81
HETATM   81  O   UNK     0       3.939   4.011  -9.109  0.00  0.00    -0.383 OA
HETATM   82  H   UNK     0       4.307   3.902  -8.623  0.00  0.00     0.210 HD
ENDBRANCH  27  81
TORSDOF 32
ENDMDL
