REMARK VINA RESULT:      -7.7      0.000      0.000
REMARK  3 active torsions:
REMARK  status: ('A' for Active; 'I' for Inactive)
REMARK    1  A    between atoms: O_2  and  C_14 
REMARK    2  A    between atoms: O_3  and  C_29 
REMARK    3  A    between atoms: O_3  and  C_35 
ROOT
HETATM    1  O   UNK     0      -1.762  -2.781 -12.545  0.00  0.00    -0.378 OA
HETATM    2  C   UNK     0      -2.623  -4.685 -11.257  0.00  0.00    -0.002 C 
HETATM    3  C   UNK     0      -2.981  -3.557 -12.301  0.00  0.00     0.073 C 
HETATM    4  C   UNK     0      -2.248  -4.006  -9.806  0.00  0.00    -0.029 C 
HETATM    5  C   UNK     0      -3.285  -4.014 -13.737  0.00  0.00     0.035 C 
HETATM    6  C   UNK     0      -1.916  -4.529 -14.158  0.00  0.00     0.014 C 
HETATM    7  C   UNK     0      -3.513  -3.188  -9.333  0.00  0.00     0.003 C 
HETATM    8  C   UNK     0      -3.522  -2.713  -7.812  0.00  0.00    -0.035 C 
HETATM    9  C   UNK     0      -1.433  -5.540 -11.802  0.00  0.00     0.045 C 
HETATM   10  C   UNK     0      -4.072  -2.604 -11.785  0.00  0.00     0.040 C 
HETATM   11  C   UNK     0      -1.438  -5.764 -13.329  0.00  0.00     0.130 C 
HETATM   12  C   UNK     0      -3.866  -2.083 -10.360  0.00  0.00     0.009 C 
HETATM   13  C   UNK     0      -3.238  -3.987  -6.928  0.00  0.00     0.004 C 
HETATM   14  C   UNK     0      -1.868  -5.097  -8.757  0.00  0.00     0.011 C 
HETATM   15  C   UNK     0      -1.092  -3.310 -13.718  0.00  0.00     0.181 C 
HETATM   16  C   UNK     0      -4.449  -4.909 -14.142  0.00  0.00     0.017 C 
HETATM   17  C   UNK     0      -1.888  -4.777 -15.674  0.00  0.00     0.015 C 
HETATM   18  C   UNK     0      -1.889  -4.632  -7.297  0.00  0.00     0.007 C 
HETATM   19  C   UNK     0      -3.846  -5.650 -11.096  0.00  0.00     0.019 C 
HETATM   20  C   UNK     0      -0.994  -3.076  -9.887  0.00  0.00     0.016 C 
HETATM   21  C   UNK     0      -4.469  -5.145 -15.680  0.00  0.00    -0.047 C 
HETATM   22  C   UNK     0      -3.483  -3.826  -5.380  0.00  0.00    -0.017 C 
HETATM   23  C   UNK     0      -4.952  -2.195  -7.461  0.00  0.00     0.012 C 
HETATM   24  C   UNK     0      -3.077  -5.605 -16.193  0.00  0.00     0.010 C 
HETATM   25  C   UNK     0      -2.535  -1.548  -7.563  0.00  0.00     0.016 C 
HETATM   26  C   UNK     0      -4.916  -3.258  -5.161  0.00  0.00     0.140 C 
HETATM   27  C   UNK     0      -5.204  -1.998  -5.968  0.00  0.00     0.034 C 
HETATM   28  C   UNK     0      -4.846  -3.823 -16.377  0.00  0.00     0.015 C 
HETATM   29  C   UNK     0      -5.537  -6.192 -16.063  0.00  0.00     0.015 C 
HETATM   30  C   UNK     0      -2.479  -2.788  -4.801  0.00  0.00     0.018 C 
HETATM   31  C   UNK     0      -3.260  -5.121  -4.572  0.00  0.00     0.018 C 
ENDROOT
BRANCH  11  32
HETATM   32  O   UNK     0      -2.186  -6.942 -13.601  0.00  0.00    -0.395 OA
HETATM   33  H   UNK     0      -2.477  -6.905 -14.527  0.00  0.00     0.210 HD
ENDBRANCH  11  32
BRANCH  26  34
HETATM   34  O   UNK     0      -5.157  -2.940  -3.790  0.00  0.00    -0.316 OA
BRANCH  34  35
HETATM   35  C   UNK     0      -6.440  -3.122  -3.361  0.00  0.00     0.255 C 
HETATM   36  O   UNK     0      -7.261  -2.242  -3.138  0.00  0.00    -0.266 OA
HETATM   37  C   UNK     0      -6.714  -4.586  -3.198  0.00  0.00     0.126 C 
ENDBRANCH  34  35
ENDBRANCH  26  34
TORSDOF 3
