MODEL 1
REMARK VINA RESULT:      -7.7      0.000      0.000
REMARK  3 active torsions:
REMARK  status: ('A' for Active; 'I' for Inactive)
REMARK    1  A    between atoms: O_2  and  C_14 
REMARK    2  A    between atoms: O_3  and  C_29 
REMARK    3  A    between atoms: O_3  and  C_35 
ROOT
HETATM    1  O   UNK     0      -1.762  -2.781 -12.545  0.00  0.00    -0.378 OA
HETATM    2  C   UNK     0      -2.623  -4.685 -11.257  0.00  0.00    -0.002 C 
HETATM    3  C   UNK     0      -2.981  -3.557 -12.301  0.00  0.00     0.073 C 
HETATM    4  C   UNK     0      -2.248  -4.006  -9.806  0.00  0.00    -0.029 C 
HETATM    5  C   UNK     0      -3.285  -4.014 -13.737  0.00  0.00     0.035 C 
HETATM    6  C   UNK     0      -1.916  -4.529 -14.158  0.00  0.00     0.014 C 
HETATM    7  C   UNK     0      -3.513  -3.188  -9.333  0.00  0.00     0.003 C 
HETATM    8  C   UNK     0      -3.522  -2.713  -7.812  0.00  0.00    -0.035 C 
HETATM    9  C   UNK     0      -1.433  -5.540 -11.802  0.00  0.00     0.045 C 
HETATM   10  C   UNK     0      -4.072  -2.604 -11.785  0.00  0.00     0.040 C 
HETATM   11  C   UNK     0      -1.438  -5.764 -13.329  0.00  0.00     0.130 C 
HETATM   12  C   UNK     0      -3.866  -2.083 -10.360  0.00  0.00     0.009 C 
HETATM   13  C   UNK     0      -3.238  -3.987  -6.928  0.00  0.00     0.004 C 
HETATM   14  C   UNK     0      -1.868  -5.097  -8.757  0.00  0.00     0.011 C 
HETATM   15  C   UNK     0      -1.092  -3.310 -13.718  0.00  0.00     0.181 C 
HETATM   16  C   UNK     0      -4.449  -4.909 -14.142  0.00  0.00     0.017 C 
HETATM   17  C   UNK     0      -1.888  -4.777 -15.674  0.00  0.00     0.015 C 
HETATM   18  C   UNK     0      -1.889  -4.632  -7.297  0.00  0.00     0.007 C 
HETATM   19  C   UNK     0      -3.846  -5.650 -11.096  0.00  0.00     0.019 C 
HETATM   20  C   UNK     0      -0.994  -3.076  -9.887  0.00  0.00     0.016 C 
HETATM   21  C   UNK     0      -4.469  -5.145 -15.680  0.00  0.00    -0.047 C 
HETATM   22  C   UNK     0      -3.483  -3.826  -5.380  0.00  0.00    -0.017 C 
HETATM   23  C   UNK     0      -4.952  -2.195  -7.461  0.00  0.00     0.012 C 
HETATM   24  C   UNK     0      -3.077  -5.605 -16.193  0.00  0.00     0.010 C 
HETATM   25  C   UNK     0      -2.535  -1.548  -7.563  0.00  0.00     0.016 C 
HETATM   26  C   UNK     0      -4.916  -3.258  -5.161  0.00  0.00     0.140 C 
HETATM   27  C   UNK     0      -5.204  -1.998  -5.968  0.00  0.00     0.034 C 
HETATM   28  C   UNK     0      -4.846  -3.823 -16.377  0.00  0.00     0.015 C 
HETATM   29  C   UNK     0      -5.537  -6.192 -16.063  0.00  0.00     0.015 C 
HETATM   30  C   UNK     0      -2.479  -2.788  -4.801  0.00  0.00     0.018 C 
HETATM   31  C   UNK     0      -3.260  -5.121  -4.572  0.00  0.00     0.018 C 
ENDROOT
BRANCH  11  32
HETATM   32  O   UNK     0      -2.186  -6.942 -13.601  0.00  0.00    -0.395 OA
HETATM   33  H   UNK     0      -2.477  -6.905 -14.527  0.00  0.00     0.210 HD
ENDBRANCH  11  32
BRANCH  26  34
HETATM   34  O   UNK     0      -5.157  -2.940  -3.790  0.00  0.00    -0.316 OA
BRANCH  34  35
HETATM   35  C   UNK     0      -6.440  -3.122  -3.361  0.00  0.00     0.255 C 
HETATM   36  O   UNK     0      -7.261  -2.242  -3.138  0.00  0.00    -0.266 OA
HETATM   37  C   UNK     0      -6.714  -4.586  -3.198  0.00  0.00     0.126 C 
ENDBRANCH  34  35
ENDBRANCH  26  34
TORSDOF 3
ENDMDL
MODEL 2
REMARK VINA RESULT:      -6.9      4.099      6.818
REMARK  3 active torsions:
REMARK  status: ('A' for Active; 'I' for Inactive)
REMARK    1  A    between atoms: O_2  and  C_14 
REMARK    2  A    between atoms: O_3  and  C_29 
REMARK    3  A    between atoms: O_3  and  C_35 
ROOT
HETATM    1  O   UNK     0      -3.294  -3.980  -9.786  0.00  0.00    -0.378 OA
HETATM    2  C   UNK     0      -3.240  -2.376 -11.643  0.00  0.00    -0.002 C 
HETATM    3  C   UNK     0      -2.491  -3.577 -10.942  0.00  0.00     0.073 C 
HETATM    4  C   UNK     0      -3.249  -1.066 -10.648  0.00  0.00    -0.029 C 
HETATM    5  C   UNK     0      -2.454  -4.910 -11.706  0.00  0.00     0.035 C 
HETATM    6  C   UNK     0      -3.929  -5.285 -11.675  0.00  0.00     0.014 C 
HETATM    7  C   UNK     0      -1.743  -0.691 -10.356  0.00  0.00     0.003 C 
HETATM    8  C   UNK     0      -1.483   0.734  -9.690  0.00  0.00    -0.035 C 
HETATM    9  C   UNK     0      -4.694  -2.814 -12.010  0.00  0.00     0.045 C 
HETATM   10  C   UNK     0      -1.087  -3.186 -10.450  0.00  0.00     0.040 C 
HETATM   11  C   UNK     0      -4.839  -4.284 -12.458  0.00  0.00     0.130 C 
HETATM   12  C   UNK     0      -1.008  -1.870  -9.671  0.00  0.00     0.009 C 
HETATM   13  C   UNK     0      -2.230   1.802 -10.578  0.00  0.00     0.004 C 
HETATM   14  C   UNK     0      -4.002   0.133 -11.306  0.00  0.00     0.011 C 
HETATM   15  C   UNK     0      -4.165  -5.073 -10.172  0.00  0.00     0.181 C 
HETATM   16  C   UNK     0      -1.774  -5.129 -13.051  0.00  0.00     0.017 C 
HETATM   17  C   UNK     0      -4.113  -6.742 -12.128  0.00  0.00     0.015 C 
HETATM   18  C   UNK     0      -3.738   1.499 -10.664  0.00  0.00     0.007 C 
HETATM   19  C   UNK     0      -2.512  -2.025 -12.985  0.00  0.00     0.019 C 
HETATM   20  C   UNK     0      -4.016  -1.335  -9.312  0.00  0.00     0.016 C 
HETATM   21  C   UNK     0      -1.911  -6.608 -13.516  0.00  0.00    -0.047 C 
HETATM   22  C   UNK     0      -1.883   3.310 -10.287  0.00  0.00    -0.017 C 
HETATM   23  C   UNK     0       0.045   1.042  -9.755  0.00  0.00     0.012 C 
HETATM   24  C   UNK     0      -3.387  -7.084 -13.441  0.00  0.00     0.010 C 
HETATM   25  C   UNK     0      -1.898   0.761  -8.200  0.00  0.00     0.016 C 
HETATM   26  C   UNK     0      -0.336   3.480 -10.328  0.00  0.00     0.140 C 
HETATM   27  C   UNK     0       0.411   2.490  -9.443  0.00  0.00     0.034 C 
HETATM   28  C   UNK     0      -1.052  -7.496 -12.594  0.00  0.00     0.015 C 
HETATM   29  C   UNK     0      -1.378  -6.784 -14.955  0.00  0.00     0.015 C 
HETATM   30  C   UNK     0      -2.353   3.683  -8.851  0.00  0.00     0.018 C 
HETATM   31  C   UNK     0      -2.586   4.308 -11.230  0.00  0.00     0.018 C 
ENDROOT
BRANCH  11  32
HETATM   32  O   UNK     0      -4.649  -4.339 -13.865  0.00  0.00    -0.395 OA
HETATM   33  H   UNK     0      -5.111  -3.580 -14.259  0.00  0.00     0.210 HD
ENDBRANCH  11  32
BRANCH  26  34
HETATM   34  O   UNK     0       0.065   4.789  -9.923  0.00  0.00    -0.316 OA
BRANCH  34  35
HETATM   35  C   UNK     0       0.837   5.471 -10.818  0.00  0.00     0.255 C 
HETATM   36  O   UNK     0       0.953   5.224 -12.012  0.00  0.00    -0.266 OA
HETATM   37  C   UNK     0       1.542   6.596 -10.122  0.00  0.00     0.126 C 
ENDBRANCH  34  35
ENDBRANCH  26  34
TORSDOF 3
ENDMDL
MODEL 3
REMARK VINA RESULT:      -6.4      4.122      6.588
REMARK  3 active torsions:
REMARK  status: ('A' for Active; 'I' for Inactive)
REMARK    1  A    between atoms: O_2  and  C_14 
REMARK    2  A    between atoms: O_3  and  C_29 
REMARK    3  A    between atoms: O_3  and  C_35 
ROOT
HETATM    1  O   UNK     0      -0.820  -4.506 -11.113  0.00  0.00    -0.378 OA
HETATM    2  C   UNK     0      -2.623  -2.846 -11.254  0.00  0.00    -0.002 C 
HETATM    3  C   UNK     0      -1.625  -3.752 -12.077  0.00  0.00     0.073 C 
HETATM    4  C   UNK     0      -1.783  -1.709 -10.414  0.00  0.00    -0.029 C 
HETATM    5  C   UNK     0      -2.241  -4.920 -12.865  0.00  0.00     0.035 C 
HETATM    6  C   UNK     0      -2.728  -5.798 -11.721  0.00  0.00     0.014 C 
HETATM    7  C   UNK     0      -0.985  -0.846 -11.468  0.00  0.00     0.003 C 
HETATM    8  C   UNK     0      -0.359   0.521 -10.937  0.00  0.00    -0.035 C 
HETATM    9  C   UNK     0      -3.469  -3.744 -10.294  0.00  0.00     0.045 C 
HETATM   10  C   UNK     0      -0.680  -2.926 -12.965  0.00  0.00     0.040 C 
HETATM   11  C   UNK     0      -3.847  -5.129 -10.861  0.00  0.00     0.130 C 
HETATM   12  C   UNK     0      -0.008  -1.735 -12.277  0.00  0.00     0.009 C 
HETATM   13  C   UNK     0      -1.522   1.319 -10.231  0.00  0.00     0.004 C 
HETATM   14  C   UNK     0      -2.742  -0.810  -9.573  0.00  0.00     0.011 C 
HETATM   15  C   UNK     0      -1.430  -5.804 -10.898  0.00  0.00     0.181 C 
HETATM   16  C   UNK     0      -3.228  -4.775 -14.016  0.00  0.00     0.017 C 
HETATM   17  C   UNK     0      -3.126  -7.184 -12.252  0.00  0.00     0.015 C 
HETATM   18  C   UNK     0      -2.134   0.505  -9.075  0.00  0.00     0.007 C 
HETATM   19  C   UNK     0      -3.626  -2.154 -12.238  0.00  0.00     0.019 C 
HETATM   20  C   UNK     0      -0.806  -2.338  -9.369  0.00  0.00     0.016 C 
HETATM   21  C   UNK     0      -3.620  -6.164 -14.599  0.00  0.00    -0.047 C 
HETATM   22  C   UNK     0      -1.217   2.824  -9.881  0.00  0.00    -0.017 C 
HETATM   23  C   UNK     0       0.121   1.358 -12.164  0.00  0.00     0.012 C 
HETATM   24  C   UNK     0      -4.060  -7.139 -13.475  0.00  0.00     0.010 C 
HETATM   25  C   UNK     0       0.872   0.280 -10.032  0.00  0.00     0.016 C 
HETATM   26  C   UNK     0      -0.701   3.537 -11.165  0.00  0.00     0.140 C 
HETATM   27  C   UNK     0       0.455   2.813 -11.844  0.00  0.00     0.034 C 
HETATM   28  C   UNK     0      -2.395  -6.756 -15.324  0.00  0.00     0.015 C 
HETATM   29  C   UNK     0      -4.751  -6.024 -15.641  0.00  0.00     0.015 C 
HETATM   30  C   UNK     0      -0.078   2.890  -8.823  0.00  0.00     0.018 C 
HETATM   31  C   UNK     0      -2.411   3.576  -9.258  0.00  0.00     0.018 C 
ENDROOT
BRANCH  11  32
HETATM   32  O   UNK     0      -5.082  -5.002 -11.554  0.00  0.00    -0.395 OA
HETATM   33  H   UNK     0      -5.687  -4.486 -10.994  0.00  0.00     0.210 HD
ENDBRANCH  11  32
BRANCH  26  34
HETATM   34  O   UNK     0      -0.258   4.867 -10.892  0.00  0.00    -0.316 OA
BRANCH  34  35
HETATM   35  C   UNK     0      -0.498   5.780 -11.877  0.00  0.00     0.255 C 
HETATM   36  O   UNK     0       0.303   6.591 -12.324  0.00  0.00    -0.266 OA
HETATM   37  C   UNK     0      -1.914   5.651 -12.350  0.00  0.00     0.126 C 
ENDBRANCH  34  35
ENDBRANCH  26  34
TORSDOF 3
ENDMDL
MODEL 4
REMARK VINA RESULT:      -6.1      4.103      8.680
REMARK  3 active torsions:
REMARK  status: ('A' for Active; 'I' for Inactive)
REMARK    1  A    between atoms: O_2  and  C_14 
REMARK    2  A    between atoms: O_3  and  C_29 
REMARK    3  A    between atoms: O_3  and  C_35 
ROOT
HETATM    1  O   UNK     0      -1.913  -3.696  -8.405  0.00  0.00    -0.378 OA
HETATM    2  C   UNK     0      -1.858  -1.393  -7.557  0.00  0.00    -0.002 C 
HETATM    3  C   UNK     0      -2.774  -2.641  -7.867  0.00  0.00     0.073 C 
HETATM    4  C   UNK     0      -1.255  -0.780  -8.959  0.00  0.00    -0.029 C 
HETATM    5  C   UNK     0      -3.364  -3.384  -6.657  0.00  0.00     0.035 C 
HETATM    6  C   UNK     0      -2.096  -3.961  -6.044  0.00  0.00     0.014 C 
HETATM    7  C   UNK     0      -2.486  -0.361  -9.854  0.00  0.00     0.003 C 
HETATM    8  C   UNK     0      -2.166   0.558 -11.116  0.00  0.00    -0.035 C 
HETATM    9  C   UNK     0      -0.709  -1.820  -6.588  0.00  0.00     0.045 C 
HETATM   10  C   UNK     0      -3.866  -2.325  -8.903  0.00  0.00     0.040 C 
HETATM   11  C   UNK     0      -1.106  -2.868  -5.527  0.00  0.00     0.130 C 
HETATM   12  C   UNK     0      -3.387  -1.585 -10.155  0.00  0.00     0.009 C 
HETATM   13  C   UNK     0      -1.329   1.788 -10.592  0.00  0.00     0.004 C 
HETATM   14  C   UNK     0      -0.327   0.444  -8.683  0.00  0.00     0.011 C 
HETATM   15  C   UNK     0      -1.507  -4.573  -7.324  0.00  0.00     0.181 C 
HETATM   16  C   UNK     0      -4.337  -2.784  -5.651  0.00  0.00     0.017 C 
HETATM   17  C   UNK     0      -2.454  -5.001  -4.972  0.00  0.00     0.015 C 
HETATM   18  C   UNK     0      -0.032   1.325  -9.901  0.00  0.00     0.007 C 
HETATM   19  C   UNK     0      -2.703  -0.302  -6.816  0.00  0.00     0.019 C 
HETATM   20  C   UNK     0      -0.350  -1.805  -9.718  0.00  0.00     0.016 C 
HETATM   21  C   UNK     0      -4.748  -3.829  -4.573  0.00  0.00    -0.047 C 
HETATM   22  C   UNK     0      -1.141   2.980 -11.604  0.00  0.00    -0.017 C 
HETATM   23  C   UNK     0      -3.511   1.103 -11.689  0.00  0.00     0.012 C 
HETATM   24  C   UNK     0      -3.500  -4.514  -3.953  0.00  0.00     0.010 C 
HETATM   25  C   UNK     0      -1.469  -0.234 -12.247  0.00  0.00     0.016 C 
HETATM   26  C   UNK     0      -2.540   3.399 -12.142  0.00  0.00     0.140 C 
HETATM   27  C   UNK     0      -3.354   2.238 -12.698  0.00  0.00     0.034 C 
HETATM   28  C   UNK     0      -5.627  -4.905  -5.240  0.00  0.00     0.015 C 
HETATM   29  C   UNK     0      -5.588  -3.170  -3.459  0.00  0.00     0.015 C 
HETATM   30  C   UNK     0      -0.300   2.499 -12.821  0.00  0.00     0.018 C 
HETATM   31  C   UNK     0      -0.378   4.185 -11.017  0.00  0.00     0.018 C 
ENDROOT
BRANCH  11  32
HETATM   32  O   UNK     0      -1.585  -2.178  -4.381  0.00  0.00    -0.395 OA
HETATM   33  H   UNK     0      -0.842  -1.681  -3.998  0.00  0.00     0.210 HD
ENDBRANCH  11  32
BRANCH  26  34
HETATM   34  O   UNK     0      -2.439   4.374 -13.181  0.00  0.00    -0.316 OA
BRANCH  34  35
HETATM   35  C   UNK     0      -3.146   5.524 -12.979  0.00  0.00     0.255 C 
HETATM   36  O   UNK     0      -3.108   6.232 -11.981  0.00  0.00    -0.266 OA
HETATM   37  C   UNK     0      -3.997   5.809 -14.179  0.00  0.00     0.126 C 
ENDBRANCH  34  35
ENDBRANCH  26  34
TORSDOF 3
ENDMDL
MODEL 5
REMARK VINA RESULT:      -6.0      5.476      7.724
REMARK  3 active torsions:
REMARK  status: ('A' for Active; 'I' for Inactive)
REMARK    1  A    between atoms: O_2  and  C_14 
REMARK    2  A    between atoms: O_3  and  C_29 
REMARK    3  A    between atoms: O_3  and  C_35 
ROOT
HETATM    1  O   UNK     0      -7.499   2.726 -11.274  0.00  0.00    -0.378 OA
HETATM    2  C   UNK     0      -7.784   0.367 -10.657  0.00  0.00    -0.002 C 
HETATM    3  C   UNK     0      -8.116   1.861 -10.267  0.00  0.00     0.073 C 
HETATM    4  C   UNK     0      -6.167   0.100 -10.520  0.00  0.00    -0.029 C 
HETATM    5  C   UNK     0      -9.581   2.305 -10.411  0.00  0.00     0.035 C 
HETATM    6  C   UNK     0      -9.740   2.242 -11.924  0.00  0.00     0.014 C 
HETATM    7  C   UNK     0      -5.773   0.385  -9.018  0.00  0.00     0.003 C 
HETATM    8  C   UNK     0      -4.333  -0.119  -8.555  0.00  0.00    -0.035 C 
HETATM    9  C   UNK     0      -8.280   0.089 -12.113  0.00  0.00     0.045 C 
HETATM   10  C   UNK     0      -7.559   2.244  -8.885  0.00  0.00     0.040 C 
HETATM   11  C   UNK     0      -9.595   0.797 -12.501  0.00  0.00     0.130 C 
HETATM   12  C   UNK     0      -6.101   1.850  -8.634  0.00  0.00     0.009 C 
HETATM   13  C   UNK     0      -4.228  -1.643  -8.948  0.00  0.00     0.004 C 
HETATM   14  C   UNK     0      -5.805  -1.365 -10.921  0.00  0.00     0.011 C 
HETATM   15  C   UNK     0      -8.479   3.036 -12.297  0.00  0.00     0.181 C 
HETATM   16  C   UNK     0     -10.751   1.726  -9.627  0.00  0.00     0.017 C 
HETATM   17  C   UNK     0     -11.048   2.928 -12.346  0.00  0.00     0.015 C 
HETATM   18  C   UNK     0      -4.423  -1.842 -10.463  0.00  0.00     0.007 C 
HETATM   19  C   UNK     0      -8.570  -0.602  -9.710  0.00  0.00     0.019 C 
HETATM   20  C   UNK     0      -5.329   0.997 -11.487  0.00  0.00     0.016 C 
HETATM   21  C   UNK     0     -12.086   2.431 -10.007  0.00  0.00    -0.047 C 
HETATM   22  C   UNK     0      -3.013  -2.434  -8.335  0.00  0.00    -0.017 C 
HETATM   23  C   UNK     0      -4.247  -0.018  -7.000  0.00  0.00     0.012 C 
HETATM   24  C   UNK     0     -12.281   2.469 -11.547  0.00  0.00     0.010 C 
HETATM   25  C   UNK     0      -3.198   0.755  -9.139  0.00  0.00     0.016 C 
HETATM   26  C   UNK     0      -3.003  -2.216  -6.795  0.00  0.00     0.140 C 
HETATM   27  C   UNK     0      -3.057  -0.749  -6.385  0.00  0.00     0.034 C 
HETATM   28  C   UNK     0     -12.049   3.877  -9.473  0.00  0.00     0.015 C 
HETATM   29  C   UNK     0     -13.289   1.724  -9.346  0.00  0.00     0.015 C 
HETATM   30  C   UNK     0      -1.681  -1.854  -8.895  0.00  0.00     0.018 C 
HETATM   31  C   UNK     0      -2.998  -3.935  -8.693  0.00  0.00     0.018 C 
ENDROOT
BRANCH  11  32
HETATM   32  O   UNK     0     -10.677  -0.055 -12.152  0.00  0.00    -0.395 OA
HETATM   33  H   UNK     0     -10.434  -0.529 -11.338  0.00  0.00     0.210 HD
ENDBRANCH  11  32
BRANCH  26  34
HETATM   34  O   UNK     0      -1.841  -2.778  -6.185  0.00  0.00    -0.316 OA
BRANCH  34  35
HETATM   35  C   UNK     0      -2.075  -3.743  -5.249  0.00  0.00     0.255 C 
HETATM   36  O   UNK     0      -2.887  -3.683  -4.334  0.00  0.00    -0.266 OA
HETATM   37  C   UNK     0      -1.181  -4.918  -5.502  0.00  0.00     0.126 C 
ENDBRANCH  34  35
ENDBRANCH  26  34
TORSDOF 3
ENDMDL
MODEL 6
REMARK VINA RESULT:      -5.9      5.359      7.973
REMARK  3 active torsions:
REMARK  status: ('A' for Active; 'I' for Inactive)
REMARK    1  A    between atoms: O_2  and  C_14 
REMARK    2  A    between atoms: O_3  and  C_29 
REMARK    3  A    between atoms: O_3  and  C_35 
ROOT
HETATM    1  O   UNK     0      -4.620  -2.894 -14.342  0.00  0.00    -0.378 OA
HETATM    2  C   UNK     0      -5.859  -3.982 -12.524  0.00  0.00    -0.002 C 
HETATM    3  C   UNK     0      -5.002  -4.212 -13.830  0.00  0.00     0.073 C 
HETATM    4  C   UNK     0      -7.278  -3.244 -12.909  0.00  0.00    -0.029 C 
HETATM    5  C   UNK     0      -3.606  -4.828 -13.641  0.00  0.00     0.035 C 
HETATM    6  C   UNK     0      -2.906  -3.700 -12.896  0.00  0.00     0.014 C 
HETATM    7  C   UNK     0      -8.039  -4.192 -13.916  0.00  0.00     0.003 C 
HETATM    8  C   UNK     0      -9.575  -3.860 -14.180  0.00  0.00    -0.035 C 
HETATM    9  C   UNK     0      -5.037  -3.126 -11.506  0.00  0.00     0.045 C 
HETATM   10  C   UNK     0      -5.788  -4.954 -14.924  0.00  0.00     0.040 C 
HETATM   11  C   UNK     0      -3.521  -3.413 -11.489  0.00  0.00     0.130 C 
HETATM   12  C   UNK     0      -7.196  -4.419 -15.197  0.00  0.00     0.009 C 
HETATM   13  C   UNK     0     -10.275  -3.760 -12.770  0.00  0.00     0.004 C 
HETATM   14  C   UNK     0      -8.139  -2.984 -11.633  0.00  0.00     0.011 C 
HETATM   15  C   UNK     0      -3.305  -2.552 -13.837  0.00  0.00     0.181 C 
HETATM   16  C   UNK     0      -3.331  -6.219 -13.086  0.00  0.00     0.017 C 
HETATM   17  C   UNK     0      -1.392  -3.959 -12.849  0.00  0.00     0.015 C 
HETATM   18  C   UNK     0      -9.616  -2.674 -11.897  0.00  0.00     0.007 C 
HETATM   19  C   UNK     0      -6.142  -5.363 -11.840  0.00  0.00     0.019 C 
HETATM   20  C   UNK     0      -7.064  -1.830 -13.541  0.00  0.00     0.016 C 
HETATM   21  C   UNK     0      -1.805  -6.523 -13.062  0.00  0.00    -0.047 C 
HETATM   22  C   UNK     0     -11.849  -3.726 -12.778  0.00  0.00    -0.017 C 
HETATM   23  C   UNK     0     -10.218  -5.055 -14.950  0.00  0.00     0.012 C 
HETATM   24  C   UNK     0      -1.015  -5.375 -12.378  0.00  0.00     0.010 C 
HETATM   25  C   UNK     0      -9.753  -2.597 -15.055  0.00  0.00     0.016 C 
HETATM   26  C   UNK     0     -12.367  -4.931 -13.615  0.00  0.00     0.140 C 
HETATM   27  C   UNK     0     -11.743  -5.027 -15.001  0.00  0.00     0.034 C 
HETATM   28  C   UNK     0      -1.310  -6.674 -14.514  0.00  0.00     0.015 C 
HETATM   29  C   UNK     0      -1.521  -7.856 -12.337  0.00  0.00     0.015 C 
HETATM   30  C   UNK     0     -12.336  -2.427 -13.484  0.00  0.00     0.018 C 
HETATM   31  C   UNK     0     -12.483  -3.700 -11.372  0.00  0.00     0.018 C 
ENDROOT
BRANCH  11  32
HETATM   32  O   UNK     0      -3.277  -4.452 -10.551  0.00  0.00    -0.395 OA
HETATM   33  H   UNK     0      -3.930  -4.369  -9.836  0.00  0.00     0.210 HD
ENDBRANCH  11  32
BRANCH  26  34
HETATM   34  O   UNK     0     -13.783  -4.882 -13.796  0.00  0.00    -0.316 OA
BRANCH  34  35
HETATM   35  C   UNK     0     -14.467  -5.992 -13.392  0.00  0.00     0.255 C 
HETATM   36  O   UNK     0     -14.033  -7.136 -13.352  0.00  0.00    -0.266 OA
HETATM   37  C   UNK     0     -15.859  -5.608 -12.991  0.00  0.00     0.126 C 
ENDBRANCH  34  35
ENDBRANCH  26  34
TORSDOF 3
ENDMDL
MODEL 7
REMARK VINA RESULT:      -5.7      4.844      8.530
REMARK  3 active torsions:
REMARK  status: ('A' for Active; 'I' for Inactive)
REMARK    1  A    between atoms: O_2  and  C_14 
REMARK    2  A    between atoms: O_3  and  C_29 
REMARK    3  A    between atoms: O_3  and  C_35 
ROOT
HETATM    1  O   UNK     0      -1.960   2.703  -9.521  0.00  0.00    -0.378 OA
HETATM    2  C   UNK     0      -0.298   0.985 -10.077  0.00  0.00    -0.002 C 
HETATM    3  C   UNK     0      -1.087   2.247 -10.604  0.00  0.00     0.073 C 
HETATM    4  C   UNK     0      -1.342  -0.259  -9.815  0.00  0.00    -0.029 C 
HETATM    5  C   UNK     0      -0.269   3.529 -10.832  0.00  0.00     0.035 C 
HETATM    6  C   UNK     0       0.115   3.868  -9.398  0.00  0.00     0.014 C 
HETATM    7  C   UNK     0      -2.045  -0.576 -11.192  0.00  0.00     0.003 C 
HETATM    8  C   UNK     0      -2.852  -1.948 -11.277  0.00  0.00    -0.035 C 
HETATM    9  C   UNK     0       0.469   1.361  -8.768  0.00  0.00     0.045 C 
HETATM   10  C   UNK     0      -1.956   1.924 -11.831  0.00  0.00     0.040 C 
HETATM   11  C   UNK     0       1.039   2.796  -8.736  0.00  0.00     0.130 C 
HETATM   12  C   UNK     0      -2.817   0.663 -11.711  0.00  0.00     0.009 C 
HETATM   13  C   UNK     0      -1.874  -3.089 -10.800  0.00  0.00     0.004 C 
HETATM   14  C   UNK     0      -0.593  -1.516  -9.272  0.00  0.00     0.011 C 
HETATM   15  C   UNK     0      -1.283   3.747  -8.775  0.00  0.00     0.181 C 
HETATM   16  C   UNK     0       0.860   3.678 -11.842  0.00  0.00     0.017 C 
HETATM   17  C   UNK     0       0.699   5.287  -9.330  0.00  0.00     0.015 C 
HETATM   18  C   UNK     0      -1.373  -2.831  -9.366  0.00  0.00     0.007 C 
HETATM   19  C   UNK     0       0.778   0.567 -11.136  0.00  0.00     0.019 C 
HETATM   20  C   UNK     0      -2.407   0.076  -8.720  0.00  0.00     0.016 C 
HETATM   21  C   UNK     0       1.445   5.121 -11.822  0.00  0.00    -0.047 C 
HETATM   22  C   UNK     0      -2.349  -4.566 -11.070  0.00  0.00    -0.017 C 
HETATM   23  C   UNK     0      -3.214  -2.220 -12.771  0.00  0.00     0.012 C 
HETATM   24  C   UNK     0       1.795   5.563 -10.376  0.00  0.00     0.010 C 
HETATM   25  C   UNK     0      -4.178  -1.890 -10.483  0.00  0.00     0.016 C 
HETATM   26  C   UNK     0      -2.729  -4.699 -12.573  0.00  0.00     0.140 C 
HETATM   27  C   UNK     0      -3.709  -3.636 -13.052  0.00  0.00     0.034 C 
HETATM   28  C   UNK     0       0.393   6.087 -12.399  0.00  0.00     0.015 C 
HETATM   29  C   UNK     0       2.701   5.217 -12.715  0.00  0.00     0.015 C 
HETATM   30  C   UNK     0      -3.632  -4.858 -10.239  0.00  0.00     0.018 C 
HETATM   31  C   UNK     0      -1.325  -5.640 -10.649  0.00  0.00     0.018 C 
ENDROOT
BRANCH  11  32
HETATM   32  O   UNK     0       2.347   2.765  -9.291  0.00  0.00    -0.395 OA
HETATM   33  H   UNK     0       2.755   3.635  -9.141  0.00  0.00     0.210 HD
ENDBRANCH  11  32
BRANCH  26  34
HETATM   34  O   UNK     0      -3.314  -5.969 -12.863  0.00  0.00    -0.316 OA
BRANCH  34  35
HETATM   35  C   UNK     0      -3.059  -6.463 -14.109  0.00  0.00     0.255 C 
HETATM   36  O   UNK     0      -3.889  -6.717 -14.973  0.00  0.00    -0.266 OA
HETATM   37  C   UNK     0      -1.583  -6.658 -14.282  0.00  0.00     0.126 C 
ENDBRANCH  34  35
ENDBRANCH  26  34
TORSDOF 3
ENDMDL
MODEL 8
REMARK VINA RESULT:      -5.7      5.450      8.299
REMARK  3 active torsions:
REMARK  status: ('A' for Active; 'I' for Inactive)
REMARK    1  A    between atoms: O_2  and  C_14 
REMARK    2  A    between atoms: O_3  and  C_29 
REMARK    3  A    between atoms: O_3  and  C_35 
ROOT
HETATM    1  O   UNK     0      -3.457  -0.101 -10.640  0.00  0.00    -0.378 OA
HETATM    2  C   UNK     0      -5.107   0.141  -8.839  0.00  0.00    -0.002 C 
HETATM    3  C   UNK     0      -4.320  -0.881  -9.750  0.00  0.00     0.073 C 
HETATM    4  C   UNK     0      -6.137   1.032  -9.761  0.00  0.00    -0.029 C 
HETATM    5  C   UNK     0      -3.256  -1.748  -9.056  0.00  0.00     0.035 C 
HETATM    6  C   UNK     0      -2.237  -0.682  -8.677  0.00  0.00     0.014 C 
HETATM    7  C   UNK     0      -7.132   0.024 -10.458  0.00  0.00     0.003 C 
HETATM    8  C   UNK     0      -8.425   0.660 -11.139  0.00  0.00    -0.035 C 
HETATM    9  C   UNK     0      -4.090   1.056  -8.085  0.00  0.00     0.045 C 
HETATM   10  C   UNK     0      -5.258  -1.745 -10.609  0.00  0.00     0.040 C 
HETATM   11  C   UNK     0      -2.785   0.358  -7.648  0.00  0.00     0.130 C 
HETATM   12  C   UNK     0      -6.358  -0.980 -11.350  0.00  0.00     0.009 C 
HETATM   13  C   UNK     0      -9.119   1.569 -10.053  0.00  0.00     0.004 C 
HETATM   14  C   UNK     0      -6.916   2.068  -8.891  0.00  0.00     0.011 C 
HETATM   15  C   UNK     0      -2.138   0.006 -10.047  0.00  0.00     0.181 C 
HETATM   16  C   UNK     0      -3.537  -2.771  -7.964  0.00  0.00     0.017 C 
HETATM   17  C   UNK     0      -0.926  -1.342  -8.224  0.00  0.00     0.015 C 
HETATM   18  C   UNK     0      -8.162   2.667  -9.550  0.00  0.00     0.007 C 
HETATM   19  C   UNK     0      -5.910  -0.649  -7.750  0.00  0.00     0.019 C 
HETATM   20  C   UNK     0      -5.389   1.893 -10.831  0.00  0.00     0.016 C 
HETATM   21  C   UNK     0      -2.229  -3.485  -7.512  0.00  0.00    -0.047 C 
HETATM   22  C   UNK     0     -10.571   2.074 -10.396  0.00  0.00    -0.017 C 
HETATM   23  C   UNK     0      -9.413  -0.491 -11.502  0.00  0.00     0.012 C 
HETATM   24  C   UNK     0      -1.116  -2.455  -7.177  0.00  0.00     0.010 C 
HETATM   25  C   UNK     0      -8.082   1.407 -12.450  0.00  0.00     0.016 C 
HETATM   26  C   UNK     0     -11.443   0.847 -10.791  0.00  0.00     0.140 C 
HETATM   27  C   UNK     0     -10.819  -0.025 -11.872  0.00  0.00     0.034 C 
HETATM   28  C   UNK     0      -1.741  -4.392  -8.659  0.00  0.00     0.015 C 
HETATM   29  C   UNK     0      -2.490  -4.387  -6.287  0.00  0.00     0.015 C 
HETATM   30  C   UNK     0     -10.512   3.018 -11.632  0.00  0.00     0.018 C 
HETATM   31  C   UNK     0     -11.230   2.898  -9.271  0.00  0.00     0.018 C 
ENDROOT
BRANCH  11  32
HETATM   32  O   UNK     0      -2.988  -0.191  -6.353  0.00  0.00    -0.395 OA
HETATM   33  H   UNK     0      -3.019  -1.159  -6.440  0.00  0.00     0.210 HD
ENDBRANCH  11  32
BRANCH  26  34
HETATM   34  O   UNK     0     -12.731   1.242 -11.263  0.00  0.00    -0.316 OA
BRANCH  34  35
HETATM   35  C   UNK     0     -13.761   0.410 -10.929  0.00  0.00     0.255 C 
HETATM   36  O   UNK     0     -14.621  -0.019 -11.686  0.00  0.00    -0.266 OA
HETATM   37  C   UNK     0     -13.691   0.085  -9.467  0.00  0.00     0.126 C 
ENDBRANCH  34  35
ENDBRANCH  26  34
TORSDOF 3
ENDMDL
MODEL 9
REMARK VINA RESULT:      -5.5      6.429      9.218
REMARK  3 active torsions:
REMARK  status: ('A' for Active; 'I' for Inactive)
REMARK    1  A    between atoms: O_2  and  C_14 
REMARK    2  A    between atoms: O_3  and  C_29 
REMARK    3  A    between atoms: O_3  and  C_35 
ROOT
HETATM    1  O   UNK     0      -6.126   0.937 -11.151  0.00  0.00    -0.378 OA
HETATM    2  C   UNK     0      -7.544   0.397  -9.221  0.00  0.00    -0.002 C 
HETATM    3  C   UNK     0      -6.342  -0.085 -10.125  0.00  0.00     0.073 C 
HETATM    4  C   UNK     0      -8.932   0.419 -10.103  0.00  0.00    -0.029 C 
HETATM    5  C   UNK     0      -4.948  -0.094  -9.475  0.00  0.00     0.035 C 
HETATM    6  C   UNK     0      -4.727   1.399  -9.278  0.00  0.00     0.014 C 
HETATM    7  C   UNK     0      -9.178  -1.051 -10.622  0.00  0.00     0.003 C 
HETATM    8  C   UNK     0     -10.624  -1.359 -11.219  0.00  0.00    -0.035 C 
HETATM    9  C   UNK     0      -7.222   1.812  -8.640  0.00  0.00     0.045 C 
HETATM   10  C   UNK     0      -6.632  -1.425 -10.822  0.00  0.00     0.040 C 
HETATM   11  C   UNK     0      -5.740   2.048  -8.281  0.00  0.00     0.130 C 
HETATM   12  C   UNK     0      -7.998  -1.525 -11.507  0.00  0.00     0.009 C 
HETATM   13  C   UNK     0     -11.678  -0.895 -10.142  0.00  0.00     0.004 C 
HETATM   14  C   UNK     0     -10.136   0.912  -9.241  0.00  0.00     0.011 C 
HETATM   15  C   UNK     0      -5.096   1.852 -10.699  0.00  0.00     0.181 C 
HETATM   16  C   UNK     0      -4.542  -0.956  -8.288  0.00  0.00     0.017 C 
HETATM   17  C   UNK     0      -3.261   1.671  -8.906  0.00  0.00     0.015 C 
HETATM   18  C   UNK     0     -11.521   0.603  -9.819  0.00  0.00     0.007 C 
HETATM   19  C   UNK     0      -7.698  -0.576  -8.003  0.00  0.00     0.019 C 
HETATM   20  C   UNK     0      -8.863   1.420 -11.302  0.00  0.00     0.016 C 
HETATM   21  C   UNK     0      -3.048  -0.729  -7.913  0.00  0.00    -0.047 C 
HETATM   22  C   UNK     0     -13.163  -1.360 -10.380  0.00  0.00    -0.017 C 
HETATM   23  C   UNK     0     -10.770  -2.903 -11.398  0.00  0.00     0.012 C 
HETATM   24  C   UNK     0      -2.731   0.783  -7.766  0.00  0.00     0.010 C 
HETATM   25  C   UNK     0     -10.827  -0.712 -12.610  0.00  0.00     0.016 C 
HETATM   26  C   UNK     0     -13.173  -2.901 -10.594  0.00  0.00     0.140 C 
HETATM   27  C   UNK     0     -12.197  -3.376 -11.663  0.00  0.00     0.034 C 
HETATM   28  C   UNK     0      -2.165  -1.318  -9.030  0.00  0.00     0.015 C 
HETATM   29  C   UNK     0      -2.691  -1.467  -6.604  0.00  0.00     0.015 C 
HETATM   30  C   UNK     0     -13.709  -0.706 -11.682  0.00  0.00     0.018 C 
HETATM   31  C   UNK     0     -14.138  -0.939  -9.260  0.00  0.00     0.018 C 
ENDROOT
BRANCH  11  32
HETATM   32  O   UNK     0      -5.540   1.638  -6.935  0.00  0.00    -0.395 OA
HETATM   33  H   UNK     0      -6.410   1.433  -6.552  0.00  0.00     0.210 HD
ENDBRANCH  11  32
BRANCH  26  34
HETATM   34  O   UNK     0     -14.466  -3.378 -10.968  0.00  0.00    -0.316 OA
BRANCH  34  35
HETATM   35  C   UNK     0     -14.768  -4.643 -10.555  0.00  0.00     0.255 C 
HETATM   36  O   UNK     0     -15.103  -5.578 -11.271  0.00  0.00    -0.266 OA
HETATM   37  C   UNK     0     -14.629  -4.735  -9.066  0.00  0.00     0.126 C 
ENDBRANCH  34  35
ENDBRANCH  26  34
TORSDOF 3
ENDMDL
