MODEL 1
REMARK VINA RESULT:      -6.5      0.000      0.000
REMARK  4 active torsions:
REMARK  status: ('A' for Active; 'I' for Inactive)
REMARK    1  A    between atoms: N_3  and  C_15 
REMARK    2  A    between atoms: N_5  and  C_13 
REMARK    3  A    between atoms: N_5  and  C_23 
REMARK    4  A    between atoms: N_6  and  C_17 
ROOT
HETATM    1 Cl   UNK     0       0.026   3.278  -8.907  0.00  0.00    -0.084 Cl
HETATM    2  C   UNK     0       0.012  -0.531 -11.326  0.00  0.00     0.040 A 
HETATM    3  C   UNK     0      -0.916  -0.351 -10.299  0.00  0.00     0.031 A 
HETATM    4  C   UNK     0       0.944   0.471 -11.604  0.00  0.00     0.031 A 
HETATM    5  C   UNK     0      -0.912   0.826  -9.552  0.00  0.00     0.026 A 
HETATM    6  C   UNK     0       0.949   1.648 -10.855  0.00  0.00     0.026 A 
HETATM    7  C   UNK     0       0.021   1.826  -9.830  0.00  0.00     0.034 A 
ENDROOT
BRANCH   2   8
HETATM    8  N   UNK     0       0.007  -1.719 -12.082  0.00  0.00    -0.307 N 
HETATM    9  C   UNK     0       0.695  -2.848 -11.596  0.00  0.00     0.071 A 
HETATM   10  C   UNK     0       0.643  -4.071 -12.459  0.00  0.00     0.087 A 
HETATM   11  C   UNK     0       1.383  -2.938 -10.443  0.00  0.00     0.066 A 
HETATM   12  N   UNK     0       0.016  -4.144 -13.594  0.00  0.00    -0.244 NA
HETATM   13  C   UNK     0       1.351  -5.287 -11.993  0.00  0.00     0.066 A 
HETATM   14  C   UNK     0      -0.663  -3.010 -14.061  0.00  0.00     0.084 A 
HETATM   15  C   UNK     0      -0.684  -1.801 -13.338  0.00  0.00     0.069 A 
HETATM   16  C   UNK     0      -1.335  -3.106 -15.288  0.00  0.00     0.034 A 
HETATM   17  C   UNK     0      -1.388  -0.710 -13.885  0.00  0.00     0.032 A 
HETATM   18  C   UNK     0      -2.052  -0.819 -15.109  0.00  0.00     0.002 A 
HETATM   19  C   UNK     0      -2.026  -2.017 -15.811  0.00  0.00     0.002 A 
HETATM   20  C   UNK     0       2.031  -5.357 -10.845  0.00  0.00     0.063 A 
HETATM   21  C   UNK     0       2.089  -4.155  -9.975  0.00  0.00     0.080 A 
HETATM   22  N   UNK     0       2.735  -4.170  -8.849  0.00  0.00    -0.283 NA
BRANCH  20  23
HETATM   23  N   UNK     0       2.687  -6.470 -10.403  0.00  0.00    -0.354 N 
HETATM   24  H   UNK     0       3.568  -6.676 -10.860  0.00  0.00     0.166 HD
BRANCH  23  25
HETATM   25  C   UNK     0       2.269  -7.400  -9.444  0.00  0.00     0.032 A 
HETATM   26  C   UNK     0       0.937  -7.422  -9.012  0.00  0.00     0.031 A 
HETATM   27  C   UNK     0       0.521  -8.349  -8.056  0.00  0.00     0.026 A 
HETATM   28  C   UNK     0       1.433  -9.261  -7.524  0.00  0.00     0.034 A 
HETATM   29 Cl   UNK     0       0.919 -10.405  -6.347  0.00  0.00    -0.084 Cl
HETATM   30  C   UNK     0       2.762  -9.246  -7.950  0.00  0.00     0.026 A 
HETATM   31  C   UNK     0       3.179  -8.319  -8.905  0.00  0.00     0.031 A 
ENDBRANCH  23  25
ENDBRANCH  20  23
BRANCH  22  32
HETATM   32  C   UNK     0       2.693  -2.912  -8.122  0.00  0.00     0.100 C 
HETATM   33  C   UNK     0       2.253  -3.184  -6.692  0.00  0.00     0.034 C 
HETATM   34  C   UNK     0       4.069  -2.265  -8.176  0.00  0.00     0.034 C 
ENDBRANCH  22  32
ENDBRANCH   2   8
TORSDOF 4
ENDMDL
MODEL 2
REMARK VINA RESULT:      -6.4      2.821      6.167
REMARK  4 active torsions:
REMARK  status: ('A' for Active; 'I' for Inactive)
REMARK    1  A    between atoms: N_3  and  C_15 
REMARK    2  A    between atoms: N_5  and  C_13 
REMARK    3  A    between atoms: N_5  and  C_23 
REMARK    4  A    between atoms: N_6  and  C_17 
ROOT
HETATM    1 Cl   UNK     0      -0.670   3.588  -8.915  0.00  0.00    -0.084 Cl
HETATM    2  C   UNK     0       0.773  -0.627  -9.634  0.00  0.00     0.040 A 
HETATM    3  C   UNK     0       1.625   0.454  -9.867  0.00  0.00     0.031 A 
HETATM    4  C   UNK     0      -0.527  -0.401  -9.177  0.00  0.00     0.031 A 
HETATM    5  C   UNK     0       1.180   1.756  -9.645  0.00  0.00     0.026 A 
HETATM    6  C   UNK     0      -0.973   0.902  -8.956  0.00  0.00     0.026 A 
HETATM    7  C   UNK     0      -0.120   1.980  -9.189  0.00  0.00     0.034 A 
ENDROOT
BRANCH   2   8
HETATM    8  N   UNK     0       1.223  -1.942  -9.858  0.00  0.00    -0.307 N 
HETATM    9  C   UNK     0       1.087  -2.509 -11.140  0.00  0.00     0.071 A 
HETATM   10  C   UNK     0       1.589  -3.912 -11.294  0.00  0.00     0.087 A 
HETATM   11  C   UNK     0       0.561  -1.920 -12.229  0.00  0.00     0.066 A 
HETATM   12  N   UNK     0       2.127  -4.609 -10.341  0.00  0.00    -0.244 NA
HETATM   13  C   UNK     0       1.469  -4.555 -12.625  0.00  0.00     0.066 A 
HETATM   14  C   UNK     0       2.255  -4.028  -9.071  0.00  0.00     0.084 A 
HETATM   15  C   UNK     0       1.817  -2.716  -8.804  0.00  0.00     0.069 A 
HETATM   16  C   UNK     0       2.838  -4.796  -8.053  0.00  0.00     0.034 A 
HETATM   17  C   UNK     0       1.980  -2.213  -7.498  0.00  0.00     0.032 A 
HETATM   18  C   UNK     0       2.562  -2.988  -6.492  0.00  0.00     0.002 A 
HETATM   19  C   UNK     0       2.992  -4.280  -6.770  0.00  0.00     0.002 A 
HETATM   20  C   UNK     0       0.942  -3.955 -13.696  0.00  0.00     0.063 A 
HETATM   21  C   UNK     0       0.444  -2.562 -13.561  0.00  0.00     0.080 A 
HETATM   22  N   UNK     0      -0.076  -1.933 -14.570  0.00  0.00    -0.283 NA
BRANCH  20  23
HETATM   23  N   UNK     0       0.826  -4.534 -14.927  0.00  0.00    -0.354 N 
HETATM   24  H   UNK     0       1.228  -4.015 -15.700  0.00  0.00     0.166 HD
BRANCH  23  25
HETATM   25  C   UNK     0       0.168  -5.720 -15.270  0.00  0.00     0.032 A 
HETATM   26  C   UNK     0      -1.208  -5.857 -15.044  0.00  0.00     0.031 A 
HETATM   27  C   UNK     0      -1.864  -7.040 -15.385  0.00  0.00     0.026 A 
HETATM   28  C   UNK     0      -1.150  -8.095 -15.954  0.00  0.00     0.034 A 
HETATM   29 Cl   UNK     0      -1.960  -9.553 -16.377  0.00  0.00    -0.084 Cl
HETATM   30  C   UNK     0       0.220  -7.966 -16.183  0.00  0.00     0.026 A 
HETATM   31  C   UNK     0       0.876  -6.784 -15.841  0.00  0.00     0.031 A 
ENDBRANCH  23  25
ENDBRANCH  20  23
BRANCH  22  32
HETATM   32  C   UNK     0      -0.514  -0.581 -14.267  0.00  0.00     0.100 C 
HETATM   33  C   UNK     0       0.380   0.404 -15.005  0.00  0.00     0.034 C 
HETATM   34  C   UNK     0      -1.973  -0.432 -14.672  0.00  0.00     0.034 C 
ENDBRANCH  22  32
ENDBRANCH   2   8
TORSDOF 4
ENDMDL
MODEL 3
REMARK VINA RESULT:      -6.4      3.030      8.830
REMARK  4 active torsions:
REMARK  status: ('A' for Active; 'I' for Inactive)
REMARK    1  A    between atoms: N_3  and  C_15 
REMARK    2  A    between atoms: N_5  and  C_13 
REMARK    3  A    between atoms: N_5  and  C_23 
REMARK    4  A    between atoms: N_6  and  C_17 
ROOT
HETATM    1 Cl   UNK     0      -0.504  -5.521 -16.359  0.00  0.00    -0.084 Cl
HETATM    2  C   UNK     0       0.891  -3.548 -12.548  0.00  0.00     0.040 A 
HETATM    3  C   UNK     0      -0.432  -3.976 -12.671  0.00  0.00     0.031 A 
HETATM    4  C   UNK     0       1.782  -3.732 -13.608  0.00  0.00     0.031 A 
HETATM    5  C   UNK     0      -0.863  -4.586 -13.848  0.00  0.00     0.026 A 
HETATM    6  C   UNK     0       1.350  -4.342 -14.786  0.00  0.00     0.026 A 
HETATM    7  C   UNK     0       0.028  -4.769 -14.906  0.00  0.00     0.034 A 
ENDROOT
BRANCH   2   8
HETATM    8  N   UNK     0       1.327  -2.933 -11.359  0.00  0.00    -0.307 N 
HETATM    9  C   UNK     0       1.226  -1.534 -11.230  0.00  0.00     0.071 A 
HETATM   10  C   UNK     0       1.712  -0.958  -9.936  0.00  0.00     0.087 A 
HETATM   11  C   UNK     0       0.737  -0.674 -12.141  0.00  0.00     0.066 A 
HETATM   12  N   UNK     0       2.204  -1.656  -8.958  0.00  0.00    -0.244 NA
HETATM   13  C   UNK     0       1.628   0.511  -9.748  0.00  0.00     0.066 A 
HETATM   14  C   UNK     0       2.296  -3.047  -9.105  0.00  0.00     0.084 A 
HETATM   15  C   UNK     0       1.872  -3.703 -10.277  0.00  0.00     0.069 A 
HETATM   16  C   UNK     0       2.829  -3.786  -8.039  0.00  0.00     0.034 A 
HETATM   17  C   UNK     0       2.006  -5.105 -10.342  0.00  0.00     0.032 A 
HETATM   18  C   UNK     0       2.539  -5.829  -9.273  0.00  0.00     0.002 A 
HETATM   19  C   UNK     0       2.951  -5.171  -8.122  0.00  0.00     0.002 A 
HETATM   20  C   UNK     0       1.141   1.351 -10.667  0.00  0.00     0.063 A 
HETATM   21  C   UNK     0       0.650   0.795 -11.953  0.00  0.00     0.080 A 
HETATM   22  N   UNK     0       0.166   1.567 -12.878  0.00  0.00    -0.283 NA
BRANCH  20  23
HETATM   23  N   UNK     0       1.056   2.704 -10.508  0.00  0.00    -0.354 N 
HETATM   24  H   UNK     0       1.925   3.217 -10.611  0.00  0.00     0.166 HD
BRANCH  23  25
HETATM   25  C   UNK     0      -0.061   3.469 -10.156  0.00  0.00     0.032 A 
HETATM   26  C   UNK     0      -1.193   2.856  -9.603  0.00  0.00     0.031 A 
HETATM   27  C   UNK     0      -2.308   3.618  -9.253  0.00  0.00     0.026 A 
HETATM   28  C   UNK     0      -2.300   4.999  -9.453  0.00  0.00     0.034 A 
HETATM   29 Cl   UNK     0      -3.674   5.939  -9.019  0.00  0.00    -0.084 Cl
HETATM   30  C   UNK     0      -1.176   5.617 -10.002  0.00  0.00     0.026 A 
HETATM   31  C   UNK     0      -0.062   4.855 -10.353  0.00  0.00     0.031 A 
ENDBRANCH  23  25
ENDBRANCH  20  23
BRANCH  22  32
HETATM   32  C   UNK     0      -0.267   0.863 -14.074  0.00  0.00     0.100 C 
HETATM   33  C   UNK     0      -1.750   1.123 -14.289  0.00  0.00     0.034 C 
HETATM   34  C   UNK     0       0.567   1.337 -15.255  0.00  0.00     0.034 C 
ENDBRANCH  22  32
ENDBRANCH   2   8
TORSDOF 4
ENDMDL
MODEL 4
REMARK VINA RESULT:      -6.0      3.224      5.631
REMARK  4 active torsions:
REMARK  status: ('A' for Active; 'I' for Inactive)
REMARK    1  A    between atoms: N_3  and  C_15 
REMARK    2  A    between atoms: N_5  and  C_13 
REMARK    3  A    between atoms: N_5  and  C_23 
REMARK    4  A    between atoms: N_6  and  C_17 
ROOT
HETATM    1 Cl   UNK     0       4.069  -3.394  -5.468  0.00  0.00    -0.084 Cl
HETATM    2  C   UNK     0       1.754  -2.268  -9.175  0.00  0.00     0.040 A 
HETATM    3  C   UNK     0       3.150  -2.228  -9.182  0.00  0.00     0.031 A 
HETATM    4  C   UNK     0       1.077  -2.658  -8.018  0.00  0.00     0.031 A 
HETATM    5  C   UNK     0       3.865  -2.576  -8.037  0.00  0.00     0.026 A 
HETATM    6  C   UNK     0       1.793  -3.006  -6.872  0.00  0.00     0.026 A 
HETATM    7  C   UNK     0       3.186  -2.966  -6.882  0.00  0.00     0.034 A 
ENDROOT
BRANCH   2   8
HETATM    8  N   UNK     0       1.032  -1.918 -10.331  0.00  0.00    -0.307 N 
HETATM    9  C   UNK     0       0.709  -2.916 -11.271  0.00  0.00     0.071 A 
HETATM   10  C   UNK     0      -0.060  -2.461 -12.473  0.00  0.00     0.087 A 
HETATM   11  C   UNK     0       1.015  -4.223 -11.195  0.00  0.00     0.066 A 
HETATM   12  N   UNK     0      -0.434  -1.236 -12.687  0.00  0.00    -0.244 NA
HETATM   13  C   UNK     0      -0.425  -3.473 -13.494  0.00  0.00     0.066 A 
HETATM   14  C   UNK     0      -0.104  -0.257 -11.740  0.00  0.00     0.084 A 
HETATM   15  C   UNK     0       0.618  -0.564 -10.571  0.00  0.00     0.069 A 
HETATM   16  C   UNK     0      -0.516   1.060 -11.987  0.00  0.00     0.034 A 
HETATM   17  C   UNK     0       0.911   0.484  -9.675  0.00  0.00     0.032 A 
HETATM   18  C   UNK     0       0.496   1.793  -9.933  0.00  0.00     0.002 A 
HETATM   19  C   UNK     0      -0.218   2.081 -11.089  0.00  0.00     0.002 A 
HETATM   20  C   UNK     0      -0.111  -4.768 -13.402  0.00  0.00     0.063 A 
HETATM   21  C   UNK     0       0.647  -5.237 -12.214  0.00  0.00     0.080 A 
HETATM   22  N   UNK     0       0.976  -6.484 -12.075  0.00  0.00    -0.283 NA
BRANCH  20  23
HETATM   23  N   UNK     0      -0.441  -5.711 -14.333  0.00  0.00    -0.354 N 
HETATM   24  H   UNK     0       0.172  -5.772 -15.138  0.00  0.00     0.166 HD
BRANCH  23  25
HETATM   25  C   UNK     0      -1.554  -6.560 -14.352  0.00  0.00     0.032 A 
HETATM   26  C   UNK     0      -1.927  -7.211 -15.535  0.00  0.00     0.031 A 
HETATM   27  C   UNK     0      -3.037  -8.056 -15.555  0.00  0.00     0.026 A 
HETATM   28  C   UNK     0      -3.781  -8.257 -14.392  0.00  0.00     0.034 A 
HETATM   29 Cl   UNK     0      -5.148  -9.301 -14.416  0.00  0.00    -0.084 Cl
HETATM   30  C   UNK     0      -3.415  -7.613 -13.210  0.00  0.00     0.026 A 
HETATM   31  C   UNK     0      -2.307  -6.767 -13.190  0.00  0.00     0.031 A 
ENDBRANCH  23  25
ENDBRANCH  20  23
BRANCH  22  32
HETATM   32  C   UNK     0       1.716  -6.773 -10.858  0.00  0.00     0.100 C 
HETATM   33  C   UNK     0       0.892  -7.713  -9.991  0.00  0.00     0.034 C 
HETATM   34  C   UNK     0       3.061  -7.379 -11.229  0.00  0.00     0.034 C 
ENDBRANCH  22  32
ENDBRANCH   2   8
TORSDOF 4
ENDMDL
MODEL 5
REMARK VINA RESULT:      -5.8      3.398      8.349
REMARK  4 active torsions:
REMARK  status: ('A' for Active; 'I' for Inactive)
REMARK    1  A    between atoms: N_3  and  C_15 
REMARK    2  A    between atoms: N_5  and  C_13 
REMARK    3  A    between atoms: N_5  and  C_23 
REMARK    4  A    between atoms: N_6  and  C_17 
ROOT
HETATM    1 Cl   UNK     0       1.057 -10.005  -6.288  0.00  0.00    -0.084 Cl
HETATM    2  C   UNK     0      -0.857  -8.696 -10.160  0.00  0.00     0.040 A 
HETATM    3  C   UNK     0       0.275  -9.513 -10.179  0.00  0.00     0.031 A 
HETATM    4  C   UNK     0      -1.396  -8.286  -8.938  0.00  0.00     0.031 A 
HETATM    5  C   UNK     0       0.866  -9.917  -8.983  0.00  0.00     0.026 A 
HETATM    6  C   UNK     0      -0.804  -8.690  -7.742  0.00  0.00     0.026 A 
HETATM    7  C   UNK     0       0.327  -9.506  -7.764  0.00  0.00     0.034 A 
ENDROOT
BRANCH   2   8
HETATM    8  N   UNK     0      -1.455  -8.288 -11.367  0.00  0.00    -0.307 N 
HETATM    9  C   UNK     0      -0.996  -7.118 -12.002  0.00  0.00     0.071 A 
HETATM   10  C   UNK     0      -1.684  -6.753 -13.281  0.00  0.00     0.087 A 
HETATM   11  C   UNK     0      -0.008  -6.308 -11.582  0.00  0.00     0.066 A 
HETATM   12  N   UNK     0      -2.649  -7.435 -13.819  0.00  0.00    -0.244 NA
HETATM   13  C   UNK     0      -1.239  -5.529 -13.991  0.00  0.00     0.066 A 
HETATM   14  C   UNK     0      -3.092  -8.598 -13.172  0.00  0.00     0.084 A 
HETATM   15  C   UNK     0      -2.523  -9.041 -11.962  0.00  0.00     0.069 A 
HETATM   16  C   UNK     0      -4.134  -9.323 -13.766  0.00  0.00     0.034 A 
HETATM   17  C   UNK     0      -3.033 -10.218 -11.378  0.00  0.00     0.032 A 
HETATM   18  C   UNK     0      -4.072 -10.931 -11.980  0.00  0.00     0.002 A 
HETATM   19  C   UNK     0      -4.623 -10.485 -13.174  0.00  0.00     0.002 A 
HETATM   20  C   UNK     0      -0.257  -4.734 -13.557  0.00  0.00     0.063 A 
HETATM   21  C   UNK     0       0.440  -5.085 -12.293  0.00  0.00     0.080 A 
HETATM   22  N   UNK     0       1.402  -4.348 -11.828  0.00  0.00    -0.283 NA
BRANCH  20  23
HETATM   23  N   UNK     0       0.165  -3.605 -14.199  0.00  0.00    -0.354 N 
HETATM   24  H   UNK     0       1.074  -3.663 -14.644  0.00  0.00     0.166 HD
BRANCH  23  25
HETATM   25  C   UNK     0      -0.467  -2.359 -14.269  0.00  0.00     0.032 A 
HETATM   26  C   UNK     0      -0.208  -1.378 -13.303  0.00  0.00     0.031 A 
HETATM   27  C   UNK     0      -0.838  -0.136 -13.371  0.00  0.00     0.026 A 
HETATM   28  C   UNK     0      -1.733   0.136 -14.406  0.00  0.00     0.034 A 
HETATM   29 Cl   UNK     0      -2.509   1.669 -14.492  0.00  0.00    -0.084 Cl
HETATM   30  C   UNK     0      -1.996  -0.835 -15.373  0.00  0.00     0.026 A 
HETATM   31  C   UNK     0      -1.367  -2.077 -15.304  0.00  0.00     0.031 A 
ENDBRANCH  23  25
ENDBRANCH  20  23
BRANCH  22  32
HETATM   32  C   UNK     0       1.973  -4.831 -10.582  0.00  0.00     0.100 C 
HETATM   33  C   UNK     0       3.303  -5.508 -10.879  0.00  0.00     0.034 C 
HETATM   34  C   UNK     0       2.137  -3.659  -9.626  0.00  0.00     0.034 C 
ENDBRANCH  22  32
ENDBRANCH   2   8
TORSDOF 4
ENDMDL
MODEL 6
REMARK VINA RESULT:      -5.8      2.641      8.517
REMARK  4 active torsions:
REMARK  status: ('A' for Active; 'I' for Inactive)
REMARK    1  A    between atoms: N_3  and  C_15 
REMARK    2  A    between atoms: N_5  and  C_13 
REMARK    3  A    between atoms: N_5  and  C_23 
REMARK    4  A    between atoms: N_6  and  C_17 
ROOT
HETATM    1 Cl   UNK     0      -2.745  -8.169 -15.828  0.00  0.00    -0.084 Cl
HETATM    2  C   UNK     0      -0.113  -6.089 -12.809  0.00  0.00     0.040 A 
HETATM    3  C   UNK     0       0.408  -6.471 -14.047  0.00  0.00     0.031 A 
HETATM    4  C   UNK     0      -1.451  -6.351 -12.509  0.00  0.00     0.031 A 
HETATM    5  C   UNK     0      -0.405  -7.114 -14.979  0.00  0.00     0.026 A 
HETATM    6  C   UNK     0      -2.264  -6.994 -13.442  0.00  0.00     0.026 A 
HETATM    7  C   UNK     0      -1.742  -7.375 -14.677  0.00  0.00     0.034 A 
ENDROOT
BRANCH   2   8
HETATM    8  N   UNK     0       0.707  -5.439 -11.868  0.00  0.00    -0.307 N 
HETATM    9  C   UNK     0       0.872  -4.043 -11.944  0.00  0.00     0.071 A 
HETATM   10  C   UNK     0       1.761  -3.428 -10.907  0.00  0.00     0.087 A 
HETATM   11  C   UNK     0       0.312  -3.213 -12.843  0.00  0.00     0.066 A 
HETATM   12  N   UNK     0       2.367  -4.093  -9.970  0.00  0.00    -0.244 NA
HETATM   13  C   UNK     0       1.968  -1.961 -10.943  0.00  0.00     0.066 A 
HETATM   14  C   UNK     0       2.191  -5.483  -9.910  0.00  0.00     0.084 A 
HETATM   15  C   UNK     0       1.379  -6.173 -10.832  0.00  0.00     0.069 A 
HETATM   16  C   UNK     0       2.852  -6.185  -8.893  0.00  0.00     0.034 A 
HETATM   17  C   UNK     0       1.263  -7.571 -10.701  0.00  0.00     0.032 A 
HETATM   18  C   UNK     0       1.927  -8.259  -9.683  0.00  0.00     0.002 A 
HETATM   19  C   UNK     0       2.722  -7.566  -8.778  0.00  0.00     0.002 A 
HETATM   20  C   UNK     0       1.404  -1.152 -11.845  0.00  0.00     0.063 A 
HETATM   21  C   UNK     0       0.516  -1.744 -12.878  0.00  0.00     0.080 A 
HETATM   22  N   UNK     0      -0.057  -1.004 -13.777  0.00  0.00    -0.283 NA
BRANCH  20  23
HETATM   23  N   UNK     0       1.584   0.200 -11.890  0.00  0.00    -0.354 N 
HETATM   24  H   UNK     0       2.332   0.528 -12.492  0.00  0.00     0.166 HD
BRANCH  23  25
HETATM   25  C   UNK     0       0.914   1.190 -11.163  0.00  0.00     0.032 A 
HETATM   26  C   UNK     0       1.423   1.635  -9.936  0.00  0.00     0.031 A 
HETATM   27  C   UNK     0       0.754   2.620  -9.210  0.00  0.00     0.026 A 
HETATM   28  C   UNK     0      -0.429   3.170  -9.705  0.00  0.00     0.034 A 
HETATM   29 Cl   UNK     0      -1.252   4.387  -8.811  0.00  0.00    -0.084 Cl
HETATM   30  C   UNK     0      -0.942   2.733 -10.927  0.00  0.00     0.026 A 
HETATM   31  C   UNK     0      -0.274   1.747 -11.652  0.00  0.00     0.031 A 
ENDBRANCH  23  25
ENDBRANCH  20  23
BRANCH  22  32
HETATM   32  C   UNK     0      -0.891  -1.741 -14.711  0.00  0.00     0.100 C 
HETATM   33  C   UNK     0      -2.215  -1.010 -14.874  0.00  0.00     0.034 C 
HETATM   34  C   UNK     0      -0.152  -1.872 -16.035  0.00  0.00     0.034 C 
ENDBRANCH  22  32
ENDBRANCH   2   8
TORSDOF 4
ENDMDL
MODEL 7
REMARK VINA RESULT:      -5.6      1.938      7.293
REMARK  4 active torsions:
REMARK  status: ('A' for Active; 'I' for Inactive)
REMARK    1  A    between atoms: N_3  and  C_15 
REMARK    2  A    between atoms: N_5  and  C_13 
REMARK    3  A    between atoms: N_5  and  C_23 
REMARK    4  A    between atoms: N_6  and  C_17 
ROOT
HETATM    1 Cl   UNK     0       0.987 -10.099  -9.296  0.00  0.00    -0.084 Cl
HETATM    2  C   UNK     0       0.440  -6.359 -11.761  0.00  0.00     0.040 A 
HETATM    3  C   UNK     0       1.652  -7.052 -11.800  0.00  0.00     0.031 A 
HETATM    4  C   UNK     0      -0.602  -6.828 -10.959  0.00  0.00     0.031 A 
HETATM    5  C   UNK     0       1.821  -8.207 -11.038  0.00  0.00     0.026 A 
HETATM    6  C   UNK     0      -0.433  -7.983 -10.197  0.00  0.00     0.026 A 
HETATM    7  C   UNK     0       0.778  -8.674 -10.237  0.00  0.00     0.034 A 
ENDROOT
BRANCH   2   8
HETATM    8  N   UNK     0       0.269  -5.193 -12.531  0.00  0.00    -0.307 N 
HETATM    9  C   UNK     0       0.712  -3.958 -12.019  0.00  0.00     0.071 A 
HETATM   10  C   UNK     0       0.492  -2.766 -12.898  0.00  0.00     0.087 A 
HETATM   11  C   UNK     0       1.312  -3.746 -10.833  0.00  0.00     0.066 A 
HETATM   12  N   UNK     0      -0.065  -2.809 -14.070  0.00  0.00    -0.244 NA
HETATM   13  C   UNK     0       0.941  -1.441 -12.405  0.00  0.00     0.066 A 
HETATM   14  C   UNK     0      -0.500  -4.047 -14.563  0.00  0.00     0.084 A 
HETATM   15  C   UNK     0      -0.349  -5.238 -13.826  0.00  0.00     0.069 A 
HETATM   16  C   UNK     0      -1.099  -4.075 -15.830  0.00  0.00     0.034 A 
HETATM   17  C   UNK     0      -0.819  -6.438 -14.397  0.00  0.00     0.032 A 
HETATM   18  C   UNK     0      -1.415  -6.452 -15.660  0.00  0.00     0.002 A 
HETATM   19  C   UNK     0      -1.555  -5.271 -16.377  0.00  0.00     0.002 A 
HETATM   20  C   UNK     0       1.533  -1.249 -11.223  0.00  0.00     0.063 A 
HETATM   21  C   UNK     0       1.763  -2.421 -10.341  0.00  0.00     0.080 A 
HETATM   22  N   UNK     0       2.335  -2.290  -9.184  0.00  0.00    -0.283 NA
BRANCH  20  23
HETATM   23  N   UNK     0       1.952  -0.036 -10.757  0.00  0.00    -0.354 N 
HETATM   24  H   UNK     0       2.956   0.096 -10.705  0.00  0.00     0.166 HD
BRANCH  23  25
HETATM   25  C   UNK     0       1.176   1.026 -10.279  0.00  0.00     0.032 A 
HETATM   26  C   UNK     0       0.053   0.779  -9.479  0.00  0.00     0.031 A 
HETATM   27  C   UNK     0      -0.721   1.837  -9.004  0.00  0.00     0.026 A 
HETATM   28  C   UNK     0      -0.379   3.151  -9.325  0.00  0.00     0.034 A 
HETATM   29 Cl   UNK     0      -1.333   4.456  -8.737  0.00  0.00    -0.084 Cl
HETATM   30  C   UNK     0       0.738   3.406 -10.120  0.00  0.00     0.026 A 
HETATM   31  C   UNK     0       1.512   2.348 -10.597  0.00  0.00     0.031 A 
ENDBRANCH  23  25
ENDBRANCH  20  23
BRANCH  22  32
HETATM   32  C   UNK     0       2.482  -3.535  -8.448  0.00  0.00     0.100 C 
HETATM   33  C   UNK     0       3.957  -3.905  -8.393  0.00  0.00     0.034 C 
HETATM   34  C   UNK     0       1.892  -3.359  -7.057  0.00  0.00     0.034 C 
ENDBRANCH  22  32
ENDBRANCH   2   8
TORSDOF 4
ENDMDL
MODEL 8
REMARK VINA RESULT:      -5.4      2.293      7.684
REMARK  4 active torsions:
REMARK  status: ('A' for Active; 'I' for Inactive)
REMARK    1  A    between atoms: N_3  and  C_15 
REMARK    2  A    between atoms: N_5  and  C_13 
REMARK    3  A    between atoms: N_5  and  C_23 
REMARK    4  A    between atoms: N_6  and  C_17 
ROOT
HETATM    1 Cl   UNK     0       2.988  -8.675 -11.471  0.00  0.00    -0.084 Cl
HETATM    2  C   UNK     0       0.973  -4.771 -12.499  0.00  0.00     0.040 A 
HETATM    3  C   UNK     0       1.537  -5.554 -13.507  0.00  0.00     0.031 A 
HETATM    4  C   UNK     0       1.033  -5.200 -11.171  0.00  0.00     0.031 A 
HETATM    5  C   UNK     0       2.160  -6.760 -13.190  0.00  0.00     0.026 A 
HETATM    6  C   UNK     0       1.656  -6.406 -10.854  0.00  0.00     0.026 A 
HETATM    7  C   UNK     0       2.219  -7.187 -11.863  0.00  0.00     0.034 A 
ENDROOT
BRANCH   2   8
HETATM    8  N   UNK     0       0.343  -3.553 -12.819  0.00  0.00    -0.307 N 
HETATM    9  C   UNK     0       0.469  -2.460 -11.940  0.00  0.00     0.071 A 
HETATM   10  C   UNK     0      -0.231  -1.202 -12.352  0.00  0.00     0.087 A 
HETATM   11  C   UNK     0       1.152  -2.433 -10.781  0.00  0.00     0.066 A 
HETATM   12  N   UNK     0      -0.923  -1.069 -13.442  0.00  0.00    -0.244 NA
HETATM   13  C   UNK     0      -0.130  -0.021 -11.461  0.00  0.00     0.066 A 
HETATM   14  C   UNK     0      -1.037  -2.168 -14.306  0.00  0.00     0.084 A 
HETATM   15  C   UNK     0      -0.424  -3.404 -14.024  0.00  0.00     0.069 A 
HETATM   16  C   UNK     0      -1.788  -2.006 -15.478  0.00  0.00     0.034 A 
HETATM   17  C   UNK     0      -0.594  -4.457 -14.945  0.00  0.00     0.032 A 
HETATM   18  C   UNK     0      -1.346  -4.284 -16.109  0.00  0.00     0.002 A 
HETATM   19  C   UNK     0      -1.943  -3.059 -16.377  0.00  0.00     0.002 A 
HETATM   20  C   UNK     0       0.552  -0.013 -10.312  0.00  0.00     0.063 A 
HETATM   21  C   UNK     0       1.256  -1.251  -9.891  0.00  0.00     0.080 A 
HETATM   22  N   UNK     0       1.933  -1.296  -8.785  0.00  0.00    -0.283 NA
BRANCH  20  23
HETATM   23  N   UNK     0       0.654   1.067  -9.482  0.00  0.00    -0.354 N 
HETATM   24  H   UNK     0       1.156   0.912  -8.615  0.00  0.00     0.166 HD
BRANCH  23  25
HETATM   25  C   UNK     0       0.099   2.341  -9.644  0.00  0.00     0.032 A 
HETATM   26  C   UNK     0       0.905   3.421 -10.027  0.00  0.00     0.031 A 
HETATM   27  C   UNK     0       0.353   4.692 -10.186  0.00  0.00     0.026 A 
HETATM   28  C   UNK     0      -1.010   4.893  -9.965  0.00  0.00     0.034 A 
HETATM   29 Cl   UNK     0      -1.691   6.460 -10.164  0.00  0.00    -0.084 Cl
HETATM   30  C   UNK     0      -1.819   3.823  -9.584  0.00  0.00     0.026 A 
HETATM   31  C   UNK     0      -1.267   2.552  -9.423  0.00  0.00     0.031 A 
ENDBRANCH  23  25
ENDBRANCH  20  23
BRANCH  22  32
HETATM   32  C   UNK     0       2.558  -2.581  -8.522  0.00  0.00     0.100 C 
HETATM   33  C   UNK     0       4.068  -2.401  -8.502  0.00  0.00     0.034 C 
HETATM   34  C   UNK     0       2.037  -3.122  -7.199  0.00  0.00     0.034 C 
ENDBRANCH  22  32
ENDBRANCH   2   8
TORSDOF 4
ENDMDL
MODEL 9
REMARK VINA RESULT:      -5.1      3.255      6.136
REMARK  4 active torsions:
REMARK  status: ('A' for Active; 'I' for Inactive)
REMARK    1  A    between atoms: N_3  and  C_15 
REMARK    2  A    between atoms: N_5  and  C_13 
REMARK    3  A    between atoms: N_5  and  C_23 
REMARK    4  A    between atoms: N_6  and  C_17 
ROOT
HETATM    1 Cl   UNK     0       2.818   2.870 -11.090  0.00  0.00    -0.084 Cl
HETATM    2  C   UNK     0       2.212  -1.591 -10.772  0.00  0.00     0.040 A 
HETATM    3  C   UNK     0       3.237  -1.079 -11.569  0.00  0.00     0.031 A 
HETATM    4  C   UNK     0       1.375  -0.719 -10.072  0.00  0.00     0.031 A 
HETATM    5  C   UNK     0       3.425   0.299 -11.667  0.00  0.00     0.026 A 
HETATM    6  C   UNK     0       1.562   0.660 -10.171  0.00  0.00     0.026 A 
HETATM    7  C   UNK     0       2.587   1.169 -10.968  0.00  0.00     0.034 A 
ENDROOT
BRANCH   2   8
HETATM    8  N   UNK     0       2.023  -2.982 -10.671  0.00  0.00    -0.307 N 
HETATM    9  C   UNK     0       1.206  -3.636 -11.613  0.00  0.00     0.071 A 
HETATM   10  C   UNK     0       1.055  -5.116 -11.437  0.00  0.00     0.087 A 
HETATM   11  C   UNK     0       0.557  -3.071 -12.647  0.00  0.00     0.066 A 
HETATM   12  N   UNK     0       1.621  -5.806 -10.493  0.00  0.00    -0.244 NA
HETATM   13  C   UNK     0       0.204  -5.853 -12.402  0.00  0.00     0.066 A 
HETATM   14  C   UNK     0       2.432  -5.137  -9.565  0.00  0.00     0.084 A 
HETATM   15  C   UNK     0       2.647  -3.746  -9.628  0.00  0.00     0.069 A 
HETATM   16  C   UNK     0       3.036  -5.897  -8.554  0.00  0.00     0.034 A 
HETATM   17  C   UNK     0       3.473  -3.156  -8.651  0.00  0.00     0.032 A 
HETATM   18  C   UNK     0       4.069  -3.924  -7.648  0.00  0.00     0.002 A 
HETATM   19  C   UNK     0       3.850  -5.295  -7.599  0.00  0.00     0.002 A 
HETATM   20  C   UNK     0      -0.435  -5.274 -13.423  0.00  0.00     0.063 A 
HETATM   21  C   UNK     0      -0.292  -3.808 -13.615  0.00  0.00     0.080 A 
HETATM   22  N   UNK     0      -0.890  -3.197 -14.592  0.00  0.00    -0.283 NA
BRANCH  20  23
HETATM   23  N   UNK     0      -1.220  -5.939 -14.319  0.00  0.00    -0.354 N 
HETATM   24  H   UNK     0      -1.298  -5.517 -15.238  0.00  0.00     0.166 HD
BRANCH  23  25
HETATM   25  C   UNK     0      -1.984  -7.094 -14.116  0.00  0.00     0.032 A 
HETATM   26  C   UNK     0      -3.033  -7.094 -13.187  0.00  0.00     0.031 A 
HETATM   27  C   UNK     0      -3.794  -8.245 -12.983  0.00  0.00     0.026 A 
HETATM   28  C   UNK     0      -3.513  -9.405 -13.706  0.00  0.00     0.034 A 
HETATM   29 Cl   UNK     0      -4.453 -10.824 -13.455  0.00  0.00    -0.084 Cl
HETATM   30  C   UNK     0      -2.470  -9.412 -14.633  0.00  0.00     0.026 A 
HETATM   31  C   UNK     0      -1.708  -8.262 -14.836  0.00  0.00     0.031 A 
ENDBRANCH  23  25
ENDBRANCH  20  23
BRANCH  22  32
HETATM   32  C   UNK     0      -0.646  -1.765 -14.635  0.00  0.00     0.100 C 
HETATM   33  C   UNK     0       0.118  -1.432 -15.907  0.00  0.00     0.034 C 
HETATM   34  C   UNK     0      -1.980  -1.035 -14.570  0.00  0.00     0.034 C 
ENDBRANCH  22  32
ENDBRANCH   2   8
TORSDOF 4
ENDMDL
