MODEL 1
REMARK VINA RESULT:      -7.3      0.000      0.000
REMARK  6 active torsions:
REMARK  status: ('A' for Active; 'I' for Inactive)
REMARK    1  A    between atoms: O_2  and  C_12 
REMARK    2  A    between atoms: O_4  and  C_16 
REMARK    3  A    between atoms: O_5  and  C_20 
REMARK    4  A    between atoms: C_6  and  C_13 
REMARK    5  A    between atoms: C_11  and  C_14 
REMARK    6  A    between atoms: C_14  and  C_17 
ROOT
HETATM    1  O   UNK     0      -0.594  -0.082 -12.783  0.00  0.00    -0.340 OA
HETATM    2  O   UNK     0      -2.168   3.031 -14.942  0.00  0.00    -0.292 OA
HETATM    3  C   UNK     0      -1.620  -0.312 -13.762  0.00  0.00     0.169 C 
HETATM    4  C   UNK     0      -1.542   0.717 -14.889  0.00  0.00     0.121 C 
HETATM    5  C   UNK     0      -1.170   2.283 -12.937  0.00  0.00     0.077 A 
HETATM    6  C   UNK     0      -0.629   1.185 -12.262  0.00  0.00     0.089 A 
HETATM    7  C   UNK     0      -1.694   2.097 -14.306  0.00  0.00     0.167 C 
HETATM    8  C   UNK     0      -0.625   3.711 -11.070  0.00  0.00     0.014 A 
HETATM    9  C   UNK     0      -1.176   3.546 -12.342  0.00  0.00     0.091 A 
HETATM   10  C   UNK     0      -0.060   1.360 -10.999  0.00  0.00     0.075 A 
HETATM   11  C   UNK     0      -0.064   2.622 -10.403  0.00  0.00     0.077 A 
ENDROOT
BRANCH   3  12
HETATM   12  C   UNK     0      -1.465  -1.721 -14.296  0.00  0.00    -0.029 A 
HETATM   13  C   UNK     0      -1.699  -1.984 -15.646  0.00  0.00     0.010 A 
HETATM   14  C   UNK     0      -1.556  -3.280 -16.138  0.00  0.00     0.001 A 
HETATM   15  C   UNK     0      -1.179  -4.315 -15.281  0.00  0.00     0.000 A 
HETATM   16  C   UNK     0      -0.944  -4.051 -13.931  0.00  0.00     0.001 A 
HETATM   17  C   UNK     0      -1.088  -2.753 -13.439  0.00  0.00     0.010 A 
ENDBRANCH   3  12
BRANCH   9  18
HETATM   18  O   UNK     0      -1.701   4.637 -12.970  0.00  0.00    -0.359 OA
HETATM   19  H   UNK     0      -1.059   5.031 -13.579  0.00  0.00     0.217 HD
ENDBRANCH   9  18
BRANCH  11  20
HETATM   20  O   UNK     0       0.485   2.770  -9.164  0.00  0.00    -0.360 OA
HETATM   21  H   UNK     0       0.142   2.124  -8.532  0.00  0.00     0.217 HD
ENDBRANCH  11  20
BRANCH   8  22
HETATM   22  C   UNK     0      -0.625   5.058 -10.420  0.00  0.00     0.085 C 
BRANCH  22  23
HETATM   23  C   UNK     0      -2.011   5.621 -10.184  0.00  0.00    -0.021 A 
HETATM   24  C   UNK     0      -2.388   6.808 -10.790  0.00  0.00     0.072 A 
HETATM   25  C   UNK     0      -3.668   7.312 -10.562  0.00  0.00     0.037 A 
HETATM   26  C   UNK     0      -4.552   6.624  -9.732  0.00  0.00     0.003 A 
HETATM   27  C   UNK     0      -4.157   5.430  -9.130  0.00  0.00     0.001 A 
HETATM   28  C   UNK     0      -2.876   4.925  -9.358  0.00  0.00     0.010 A 
BRANCH  24  29
HETATM   29  O   UNK     0      -1.536   7.494 -11.603  0.00  0.00    -0.360 OA
HETATM   30  H   UNK     0      -0.621   7.249 -11.381  0.00  0.00     0.217 HD
ENDBRANCH  24  29
ENDBRANCH  22  23
ENDBRANCH   8  22
TORSDOF 6
ENDMDL
MODEL 2
REMARK VINA RESULT:      -7.2      1.019      2.538
REMARK  6 active torsions:
REMARK  status: ('A' for Active; 'I' for Inactive)
REMARK    1  A    between atoms: O_2  and  C_12 
REMARK    2  A    between atoms: O_4  and  C_16 
REMARK    3  A    between atoms: O_5  and  C_20 
REMARK    4  A    between atoms: C_6  and  C_13 
REMARK    5  A    between atoms: C_11  and  C_14 
REMARK    6  A    between atoms: C_14  and  C_17 
ROOT
HETATM    1  O   UNK     0      -1.348  -0.010 -13.871  0.00  0.00    -0.340 OA
HETATM    2  O   UNK     0      -0.323  -0.246  -9.906  0.00  0.00    -0.292 OA
HETATM    3  C   UNK     0      -0.586  -1.123 -13.374  0.00  0.00     0.169 C 
HETATM    4  C   UNK     0      -0.926  -1.410 -11.913  0.00  0.00     0.121 C 
HETATM    5  C   UNK     0      -0.815   1.113 -11.772  0.00  0.00     0.077 A 
HETATM    6  C   UNK     0      -1.184   1.125 -13.121  0.00  0.00     0.089 A 
HETATM    7  C   UNK     0      -0.634  -0.184 -11.089  0.00  0.00     0.167 C 
HETATM    8  C   UNK     0      -0.894   3.524 -11.721  0.00  0.00     0.014 A 
HETATM    9  C   UNK     0      -0.663   2.311 -11.071  0.00  0.00     0.091 A 
HETATM   10  C   UNK     0      -1.434   2.341 -13.760  0.00  0.00     0.075 A 
HETATM   11  C   UNK     0      -1.284   3.539 -13.061  0.00  0.00     0.077 A 
ENDROOT
BRANCH   3  12
HETATM   12  C   UNK     0      -0.869  -2.326 -14.249  0.00  0.00    -0.029 A 
HETATM   13  C   UNK     0      -0.669  -3.612 -13.750  0.00  0.00     0.010 A 
HETATM   14  C   UNK     0      -0.931  -4.721 -14.554  0.00  0.00     0.001 A 
HETATM   15  C   UNK     0      -1.391  -4.542 -15.859  0.00  0.00     0.000 A 
HETATM   16  C   UNK     0      -1.591  -3.255 -16.359  0.00  0.00     0.001 A 
HETATM   17  C   UNK     0      -1.329  -2.147 -15.552  0.00  0.00     0.010 A 
ENDBRANCH   3  12
BRANCH   9  18
HETATM   18  O   UNK     0      -0.299   2.336  -9.757  0.00  0.00    -0.359 OA
HETATM   19  H   UNK     0       0.072   1.484  -9.482  0.00  0.00     0.217 HD
ENDBRANCH   9  18
BRANCH  11  20
HETATM   20  O   UNK     0      -1.520   4.716 -13.705  0.00  0.00    -0.360 OA
HETATM   21  H   UNK     0      -1.391   4.643 -14.660  0.00  0.00     0.217 HD
ENDBRANCH  11  20
BRANCH   8  22
HETATM   22  C   UNK     0      -0.733   4.815 -10.982  0.00  0.00     0.085 C 
BRANCH  22  23
HETATM   23  C   UNK     0      -2.043   5.436 -10.545  0.00  0.00    -0.021 A 
HETATM   24  C   UNK     0      -2.491   6.601 -11.144  0.00  0.00     0.072 A 
HETATM   25  C   UNK     0      -3.700   7.159 -10.729  0.00  0.00     0.037 A 
HETATM   26  C   UNK     0      -4.443   6.545  -9.722  0.00  0.00     0.003 A 
HETATM   27  C   UNK     0      -3.978   5.372  -9.129  0.00  0.00     0.001 A 
HETATM   28  C   UNK     0      -2.768   4.813  -9.544  0.00  0.00     0.010 A 
BRANCH  24  29
HETATM   29  O   UNK     0      -1.777   7.214 -12.129  0.00  0.00    -0.360 OA
HETATM   30  H   UNK     0      -1.111   7.795 -11.722  0.00  0.00     0.217 HD
ENDBRANCH  24  29
ENDBRANCH  22  23
ENDBRANCH   8  22
TORSDOF 6
ENDMDL
MODEL 3
REMARK VINA RESULT:      -6.9      1.867      2.392
REMARK  6 active torsions:
REMARK  status: ('A' for Active; 'I' for Inactive)
REMARK    1  A    between atoms: O_2  and  C_12 
REMARK    2  A    between atoms: O_4  and  C_16 
REMARK    3  A    between atoms: O_5  and  C_20 
REMARK    4  A    between atoms: C_6  and  C_13 
REMARK    5  A    between atoms: C_11  and  C_14 
REMARK    6  A    between atoms: C_14  and  C_17 
ROOT
HETATM    1  O   UNK     0      -0.643  -1.707 -12.330  0.00  0.00    -0.340 OA
HETATM    2  O   UNK     0       1.160   1.494 -14.156  0.00  0.00    -0.292 OA
HETATM    3  C   UNK     0      -0.768  -1.504 -13.746  0.00  0.00     0.169 C 
HETATM    4  C   UNK     0       0.463  -0.796 -14.308  0.00  0.00     0.121 C 
HETATM    5  C   UNK     0       0.170   0.590 -12.212  0.00  0.00     0.077 A 
HETATM    6  C   UNK     0      -0.420  -0.542 -11.642  0.00  0.00     0.089 A 
HETATM    7  C   UNK     0       0.627   0.531 -13.616  0.00  0.00     0.167 C 
HETATM    8  C   UNK     0      -0.023   1.759 -10.111  0.00  0.00     0.014 A 
HETATM    9  C   UNK     0       0.364   1.745 -11.451  0.00  0.00     0.091 A 
HETATM   10  C   UNK     0      -0.786  -0.528 -10.295  0.00  0.00     0.075 A 
HETATM   11  C   UNK     0      -0.593   0.624  -9.532  0.00  0.00     0.077 A 
ENDROOT
BRANCH   3  12
HETATM   12  C   UNK     0      -0.973  -2.851 -14.407  0.00  0.00    -0.029 A 
HETATM   13  C   UNK     0      -0.866  -4.019 -13.653  0.00  0.00     0.010 A 
HETATM   14  C   UNK     0      -1.056  -5.260 -14.261  0.00  0.00     0.001 A 
HETATM   15  C   UNK     0      -1.352  -5.332 -15.622  0.00  0.00     0.000 A 
HETATM   16  C   UNK     0      -1.459  -4.163 -16.376  0.00  0.00     0.001 A 
HETATM   17  C   UNK     0      -1.269  -2.922 -15.767  0.00  0.00     0.010 A 
ENDBRANCH   3  12
BRANCH   9  18
HETATM   18  O   UNK     0       0.931   2.868 -11.977  0.00  0.00    -0.359 OA
HETATM   19  H   UNK     0       1.702   3.144 -11.459  0.00  0.00     0.217 HD
ENDBRANCH   9  18
BRANCH  11  20
HETATM   20  O   UNK     0      -0.968   0.622  -8.222  0.00  0.00    -0.360 OA
HETATM   21  H   UNK     0      -1.364   1.463  -7.954  0.00  0.00     0.217 HD
ENDBRANCH  11  20
BRANCH   8  22
HETATM   22  C   UNK     0       0.177   2.990  -9.284  0.00  0.00     0.085 C 
BRANCH  22  23
HETATM   23  C   UNK     0      -0.841   4.078  -9.554  0.00  0.00    -0.021 A 
HETATM   24  C   UNK     0      -0.445   5.263 -10.153  0.00  0.00     0.072 A 
HETATM   25  C   UNK     0      -1.396   6.255 -10.394  0.00  0.00     0.037 A 
HETATM   26  C   UNK     0      -2.727   6.048 -10.032  0.00  0.00     0.003 A 
HETATM   27  C   UNK     0      -3.109   4.849  -9.431  0.00  0.00     0.001 A 
HETATM   28  C   UNK     0      -2.158   3.857  -9.190  0.00  0.00     0.010 A 
BRANCH  24  29
HETATM   29  O   UNK     0       0.851   5.481 -10.511  0.00  0.00    -0.360 OA
HETATM   30  H   UNK     0       1.160   4.734 -11.052  0.00  0.00     0.217 HD
ENDBRANCH  24  29
ENDBRANCH  22  23
ENDBRANCH   8  22
TORSDOF 6
ENDMDL
MODEL 4
REMARK VINA RESULT:      -6.8      4.670      9.201
REMARK  6 active torsions:
REMARK  status: ('A' for Active; 'I' for Inactive)
REMARK    1  A    between atoms: O_2  and  C_12 
REMARK    2  A    between atoms: O_4  and  C_16 
REMARK    3  A    between atoms: O_5  and  C_20 
REMARK    4  A    between atoms: C_6  and  C_13 
REMARK    5  A    between atoms: C_11  and  C_14 
REMARK    6  A    between atoms: C_14  and  C_17 
ROOT
HETATM    1  O   UNK     0       0.946   0.401 -10.782  0.00  0.00    -0.340 OA
HETATM    2  O   UNK     0      -0.809  -0.740  -7.254  0.00  0.00    -0.292 OA
HETATM    3  C   UNK     0      -0.435   0.698 -10.519  0.00  0.00     0.169 C 
HETATM    4  C   UNK     0      -0.682   0.875  -9.022  0.00  0.00     0.121 C 
HETATM    5  C   UNK     0       0.825  -1.154  -8.906  0.00  0.00     0.077 A 
HETATM    6  C   UNK     0       1.392  -0.702 -10.101  0.00  0.00     0.089 A 
HETATM    7  C   UNK     0      -0.287  -0.389  -8.305  0.00  0.00     0.167 C 
HETATM    8  C   UNK     0       2.418  -2.964  -8.825  0.00  0.00     0.014 A 
HETATM    9  C   UNK     0       1.330  -2.289  -8.269  0.00  0.00     0.091 A 
HETATM   10  C   UNK     0       2.493  -1.369 -10.641  0.00  0.00     0.075 A 
HETATM   11  C   UNK     0       3.001  -2.503 -10.006  0.00  0.00     0.077 A 
ENDROOT
BRANCH   3  12
HETATM   12  C   UNK     0      -0.811   1.948 -11.287  0.00  0.00    -0.029 A 
HETATM   13  C   UNK     0      -0.917   1.906 -12.677  0.00  0.00     0.010 A 
HETATM   14  C   UNK     0      -1.263   3.056 -13.384  0.00  0.00     0.001 A 
HETATM   15  C   UNK     0      -1.503   4.249 -12.702  0.00  0.00     0.000 A 
HETATM   16  C   UNK     0      -1.396   4.291 -11.311  0.00  0.00     0.001 A 
HETATM   17  C   UNK     0      -1.050   3.139 -10.604  0.00  0.00     0.010 A 
ENDBRANCH   3  12
BRANCH   9  18
HETATM   18  O   UNK     0       0.797  -2.761  -7.106  0.00  0.00    -0.359 OA
HETATM   19  H   UNK     0       0.608  -2.037  -6.490  0.00  0.00     0.217 HD
ENDBRANCH   9  18
BRANCH  11  20
HETATM   20  O   UNK     0       4.068  -3.148 -10.555  0.00  0.00    -0.360 OA
HETATM   21  H   UNK     0       3.888  -3.453 -11.454  0.00  0.00     0.217 HD
ENDBRANCH  11  20
BRANCH   8  22
HETATM   22  C   UNK     0       2.968  -4.183  -8.154  0.00  0.00     0.085 C 
BRANCH  22  23
HETATM   23  C   UNK     0       2.251  -5.462  -8.527  0.00  0.00    -0.021 A 
HETATM   24  C   UNK     0       1.382  -6.057  -7.628  0.00  0.00     0.072 A 
HETATM   25  C   UNK     0       0.729  -7.236  -7.989  0.00  0.00     0.037 A 
HETATM   26  C   UNK     0       0.956  -7.802  -9.242  0.00  0.00     0.003 A 
HETATM   27  C   UNK     0       1.834  -7.191 -10.136  0.00  0.00     0.001 A 
HETATM   28  C   UNK     0       2.486  -6.012  -9.776  0.00  0.00     0.010 A 
BRANCH  24  29
HETATM   29  O   UNK     0       1.151  -5.516  -6.399  0.00  0.00    -0.360 OA
HETATM   30  H   UNK     0       0.208  -5.288  -6.326  0.00  0.00     0.217 HD
ENDBRANCH  24  29
ENDBRANCH  22  23
ENDBRANCH   8  22
TORSDOF 6
ENDMDL
MODEL 5
REMARK VINA RESULT:      -6.5      1.397      2.223
REMARK  6 active torsions:
REMARK  status: ('A' for Active; 'I' for Inactive)
REMARK    1  A    between atoms: O_2  and  C_12 
REMARK    2  A    between atoms: O_4  and  C_16 
REMARK    3  A    between atoms: O_5  and  C_20 
REMARK    4  A    between atoms: C_6  and  C_13 
REMARK    5  A    between atoms: C_11  and  C_14 
REMARK    6  A    between atoms: C_14  and  C_17 
ROOT
HETATM    1  O   UNK     0       0.048  -1.400 -13.415  0.00  0.00    -0.340 OA
HETATM    2  O   UNK     0      -2.920   1.001 -14.919  0.00  0.00    -0.292 OA
HETATM    3  C   UNK     0      -1.261  -1.929 -13.681  0.00  0.00     0.169 C 
HETATM    4  C   UNK     0      -1.930  -1.182 -14.833  0.00  0.00     0.121 C 
HETATM    5  C   UNK     0      -0.958   0.813 -13.619  0.00  0.00     0.077 A 
HETATM    6  C   UNK     0       0.035  -0.054 -13.154  0.00  0.00     0.089 A 
HETATM    7  C   UNK     0      -2.034   0.278 -14.478  0.00  0.00     0.167 C 
HETATM    8  C   UNK     0       0.148   2.669 -12.544  0.00  0.00     0.014 A 
HETATM    9  C   UNK     0      -0.909   2.175 -13.310  0.00  0.00     0.091 A 
HETATM   10  C   UNK     0       1.100   0.450 -12.406  0.00  0.00     0.075 A 
HETATM   11  C   UNK     0       1.152   1.810 -12.097  0.00  0.00     0.077 A 
ENDROOT
BRANCH   3  12
HETATM   12  C   UNK     0      -1.126  -3.405 -13.992  0.00  0.00    -0.029 A 
HETATM   13  C   UNK     0      -0.805  -4.304 -12.975  0.00  0.00     0.010 A 
HETATM   14  C   UNK     0      -0.681  -5.664 -13.260  0.00  0.00     0.001 A 
HETATM   15  C   UNK     0      -0.878  -6.124 -14.563  0.00  0.00     0.000 A 
HETATM   16  C   UNK     0      -1.199  -5.224 -15.579  0.00  0.00     0.001 A 
HETATM   17  C   UNK     0      -1.323  -3.864 -15.293  0.00  0.00     0.010 A 
ENDBRANCH   3  12
BRANCH   9  18
HETATM   18  O   UNK     0      -1.863   3.047 -13.742  0.00  0.00    -0.359 OA
HETATM   19  H   UNK     0      -1.589   3.487 -14.560  0.00  0.00     0.217 HD
ENDBRANCH   9  18
BRANCH  11  20
HETATM   20  O   UNK     0       2.194   2.281 -11.355  0.00  0.00    -0.360 OA
HETATM   21  H   UNK     0       1.984   3.120 -10.921  0.00  0.00     0.217 HD
ENDBRANCH  11  20
BRANCH   8  22
HETATM   22  C   UNK     0       0.212   4.124 -12.204  0.00  0.00     0.085 C 
BRANCH  22  23
HETATM   23  C   UNK     0      -0.735   4.535 -11.097  0.00  0.00    -0.021 A 
HETATM   24  C   UNK     0      -1.756   5.434 -11.358  0.00  0.00     0.072 A 
HETATM   25  C   UNK     0      -2.620   5.802 -10.326  0.00  0.00     0.037 A 
HETATM   26  C   UNK     0      -2.450   5.266  -9.050  0.00  0.00     0.003 A 
HETATM   27  C   UNK     0      -1.417   4.362  -8.804  0.00  0.00     0.001 A 
HETATM   28  C   UNK     0      -0.553   3.994  -9.837  0.00  0.00     0.010 A 
BRANCH  24  29
HETATM   29  O   UNK     0      -1.935   5.967 -12.599  0.00  0.00    -0.360 OA
HETATM   30  H   UNK     0      -2.407   6.813 -12.515  0.00  0.00     0.217 HD
ENDBRANCH  24  29
ENDBRANCH  22  23
ENDBRANCH   8  22
TORSDOF 6
ENDMDL
MODEL 6
REMARK VINA RESULT:      -6.5      3.024      8.405
REMARK  6 active torsions:
REMARK  status: ('A' for Active; 'I' for Inactive)
REMARK    1  A    between atoms: O_2  and  C_12 
REMARK    2  A    between atoms: O_4  and  C_16 
REMARK    3  A    between atoms: O_5  and  C_20 
REMARK    4  A    between atoms: C_6  and  C_13 
REMARK    5  A    between atoms: C_11  and  C_14 
REMARK    6  A    between atoms: C_14  and  C_17 
ROOT
HETATM    1  O   UNK     0      -1.505   2.734  -9.579  0.00  0.00    -0.340 OA
HETATM    2  O   UNK     0       1.902   2.771 -11.864  0.00  0.00    -0.292 OA
HETATM    3  C   UNK     0      -0.910   3.975  -9.989  0.00  0.00     0.169 C 
HETATM    4  C   UNK     0      -0.186   3.820 -11.325  0.00  0.00     0.121 C 
HETATM    5  C   UNK     0       0.589   1.671 -10.239  0.00  0.00     0.077 A 
HETATM    6  C   UNK     0      -0.599   1.708  -9.503  0.00  0.00     0.089 A 
HETATM    7  C   UNK     0       0.879   2.765 -11.189  0.00  0.00     0.167 C 
HETATM    8  C   UNK     0       1.148  -0.456  -9.248  0.00  0.00     0.014 A 
HETATM    9  C   UNK     0       1.468   0.594 -10.109  0.00  0.00     0.091 A 
HETATM   10  C   UNK     0      -0.924   0.644  -8.660  0.00  0.00     0.075 A 
HETATM   11  C   UNK     0      -0.048  -0.434  -8.528  0.00  0.00     0.077 A 
ENDROOT
BRANCH   3  12
HETATM   12  C   UNK     0      -1.999   5.023 -10.075  0.00  0.00    -0.029 A 
HETATM   13  C   UNK     0      -1.846   6.119 -10.924  0.00  0.00     0.010 A 
HETATM   14  C   UNK     0      -2.850   7.084 -11.004  0.00  0.00     0.001 A 
HETATM   15  C   UNK     0      -4.006   6.954 -10.234  0.00  0.00     0.000 A 
HETATM   16  C   UNK     0      -4.158   5.857  -9.385  0.00  0.00     0.001 A 
HETATM   17  C   UNK     0      -3.154   4.892  -9.306  0.00  0.00     0.010 A 
ENDBRANCH   3  12
BRANCH   9  18
HETATM   18  O   UNK     0       2.638   0.529 -10.807  0.00  0.00    -0.359 OA
HETATM   19  H   UNK     0       3.381   0.849 -10.272  0.00  0.00     0.217 HD
ENDBRANCH   9  18
BRANCH  11  20
HETATM   20  O   UNK     0      -0.377  -1.457  -7.690  0.00  0.00    -0.360 OA
HETATM   21  H   UNK     0      -1.325  -1.487  -7.505  0.00  0.00     0.217 HD
ENDBRANCH  11  20
BRANCH   8  22
HETATM   22  C   UNK     0       2.081  -1.616  -9.097  0.00  0.00     0.085 C 
BRANCH  22  23
HETATM   23  C   UNK     0       1.804  -2.751 -10.060  0.00  0.00    -0.021 A 
HETATM   24  C   UNK     0       2.305  -4.016  -9.800  0.00  0.00     0.072 A 
HETATM   25  C   UNK     0       2.040  -5.051 -10.698  0.00  0.00     0.037 A 
HETATM   26  C   UNK     0       1.280  -4.805 -11.841  0.00  0.00     0.003 A 
HETATM   27  C   UNK     0       0.783  -3.526 -12.087  0.00  0.00     0.001 A 
HETATM   28  C   UNK     0       1.048  -2.491 -11.189  0.00  0.00     0.010 A 
BRANCH  24  29
HETATM   29  O   UNK     0       3.049  -4.272  -8.689  0.00  0.00    -0.360 OA
HETATM   30  H   UNK     0       2.558  -4.882  -8.111  0.00  0.00     0.217 HD
ENDBRANCH  24  29
ENDBRANCH  22  23
ENDBRANCH   8  22
TORSDOF 6
ENDMDL
MODEL 7
REMARK VINA RESULT:      -6.5      2.952      9.102
REMARK  6 active torsions:
REMARK  status: ('A' for Active; 'I' for Inactive)
REMARK    1  A    between atoms: O_2  and  C_12 
REMARK    2  A    between atoms: O_4  and  C_16 
REMARK    3  A    between atoms: O_5  and  C_20 
REMARK    4  A    between atoms: C_6  and  C_13 
REMARK    5  A    between atoms: C_11  and  C_14 
REMARK    6  A    between atoms: C_14  and  C_17 
ROOT
HETATM    1  O   UNK     0      -0.762  -0.364 -12.492  0.00  0.00    -0.340 OA
HETATM    2  O   UNK     0      -2.582  -1.358 -16.032  0.00  0.00    -0.292 OA
HETATM    3  C   UNK     0      -0.946   0.619 -13.524  0.00  0.00     0.169 C 
HETATM    4  C   UNK     0      -2.190   0.312 -14.356  0.00  0.00     0.121 C 
HETATM    5  C   UNK     0      -1.274  -2.040 -14.188  0.00  0.00     0.077 A 
HETATM    6  C   UNK     0      -0.694  -1.643 -12.980  0.00  0.00     0.089 A 
HETATM    7  C   UNK     0      -2.046  -1.054 -14.973  0.00  0.00     0.167 C 
HETATM    8  C   UNK     0      -0.477  -4.290 -13.841  0.00  0.00     0.014 A 
HETATM    9  C   UNK     0      -1.162  -3.362 -14.625  0.00  0.00     0.091 A 
HETATM   10  C   UNK     0      -0.028  -2.581 -12.190  0.00  0.00     0.075 A 
HETATM   11  C   UNK     0       0.085  -3.903 -12.624  0.00  0.00     0.077 A 
ENDROOT
BRANCH   3  12
HETATM   12  C   UNK     0      -1.045   1.983 -12.875  0.00  0.00    -0.029 A 
HETATM   13  C   UNK     0      -1.088   3.130 -13.667  0.00  0.00     0.010 A 
HETATM   14  C   UNK     0      -1.179   4.387 -13.069  0.00  0.00     0.001 A 
HETATM   15  C   UNK     0      -1.227   4.496 -11.679  0.00  0.00     0.000 A 
HETATM   16  C   UNK     0      -1.184   3.348 -10.887  0.00  0.00     0.001 A 
HETATM   17  C   UNK     0      -1.092   2.092 -11.486  0.00  0.00     0.010 A 
ENDBRANCH   3  12
BRANCH   9  18
HETATM   18  O   UNK     0      -1.710  -3.781 -15.801  0.00  0.00    -0.359 OA
HETATM   19  H   UNK     0      -1.373  -3.263 -16.547  0.00  0.00     0.217 HD
ENDBRANCH   9  18
BRANCH  11  20
HETATM   20  O   UNK     0       0.749  -4.802 -11.845  0.00  0.00    -0.360 OA
HETATM   21  H   UNK     0       0.817  -4.509 -10.925  0.00  0.00     0.217 HD
ENDBRANCH  11  20
BRANCH   8  22
HETATM   22  C   UNK     0      -0.347  -5.709 -14.298  0.00  0.00     0.085 C 
BRANCH  22  23
HETATM   23  C   UNK     0      -1.564  -6.559 -14.001  0.00  0.00    -0.021 A 
HETATM   24  C   UNK     0      -2.289  -7.117 -15.041  0.00  0.00     0.072 A 
HETATM   25  C   UNK     0      -3.408  -7.898 -14.750  0.00  0.00     0.037 A 
HETATM   26  C   UNK     0      -3.784  -8.109 -13.424  0.00  0.00     0.003 A 
HETATM   27  C   UNK     0      -3.043  -7.542 -12.389  0.00  0.00     0.001 A 
HETATM   28  C   UNK     0      -1.924  -6.761 -12.680  0.00  0.00     0.010 A 
BRANCH  24  29
HETATM   29  O   UNK     0      -1.935  -6.919 -16.342  0.00  0.00    -0.360 OA
HETATM   30  H   UNK     0      -2.011  -7.761 -16.822  0.00  0.00     0.217 HD
ENDBRANCH  24  29
ENDBRANCH  22  23
ENDBRANCH   8  22
TORSDOF 6
ENDMDL
MODEL 8
REMARK VINA RESULT:      -6.5      1.479      3.160
REMARK  6 active torsions:
REMARK  status: ('A' for Active; 'I' for Inactive)
REMARK    1  A    between atoms: O_2  and  C_12 
REMARK    2  A    between atoms: O_4  and  C_16 
REMARK    3  A    between atoms: O_5  and  C_20 
REMARK    4  A    between atoms: C_6  and  C_13 
REMARK    5  A    between atoms: C_11  and  C_14 
REMARK    6  A    between atoms: C_14  and  C_17 
ROOT
HETATM    1  O   UNK     0      -0.907  -0.729 -13.996  0.00  0.00    -0.340 OA
HETATM    2  O   UNK     0       0.229  -0.941 -10.060  0.00  0.00    -0.292 OA
HETATM    3  C   UNK     0      -0.256  -1.902 -13.482  0.00  0.00     0.169 C 
HETATM    4  C   UNK     0      -0.572  -2.099 -12.001  0.00  0.00     0.121 C 
HETATM    5  C   UNK     0      -0.178   0.399 -11.961  0.00  0.00     0.077 A 
HETATM    6  C   UNK     0      -0.591   0.406 -13.296  0.00  0.00     0.089 A 
HETATM    7  C   UNK     0      -0.117  -0.886 -11.235  0.00  0.00     0.167 C 
HETATM    8  C   UNK     0       0.013   2.804 -11.999  0.00  0.00     0.014 A 
HETATM    9  C   UNK     0       0.132   1.596 -11.311  0.00  0.00     0.091 A 
HETATM   10  C   UNK     0      -0.729   1.620 -13.973  0.00  0.00     0.075 A 
HETATM   11  C   UNK     0      -0.421   2.817 -13.325  0.00  0.00     0.077 A 
ENDROOT
BRANCH   3  12
HETATM   12  C   UNK     0      -0.702  -3.095 -14.301  0.00  0.00    -0.029 A 
HETATM   13  C   UNK     0      -0.684  -4.371 -13.739  0.00  0.00     0.010 A 
HETATM   14  C   UNK     0      -1.095  -5.471 -14.492  0.00  0.00     0.001 A 
HETATM   15  C   UNK     0      -1.525  -5.294 -15.807  0.00  0.00     0.000 A 
HETATM   16  C   UNK     0      -1.544  -4.016 -16.369  0.00  0.00     0.001 A 
HETATM   17  C   UNK     0      -1.132  -2.917 -15.615  0.00  0.00     0.010 A 
ENDBRANCH   3  12
BRANCH   9  18
HETATM   18  O   UNK     0       0.544   1.626 -10.012  0.00  0.00    -0.359 OA
HETATM   19  H   UNK     0       0.061   0.976  -9.478  0.00  0.00     0.217 HD
ENDBRANCH   9  18
BRANCH  11  20
HETATM   20  O   UNK     0      -0.549   3.990 -14.006  0.00  0.00    -0.360 OA
HETATM   21  H   UNK     0      -0.919   3.862 -14.891  0.00  0.00     0.217 HD
ENDBRANCH  11  20
BRANCH   8  22
HETATM   22  C   UNK     0       0.343   4.094 -11.316  0.00  0.00     0.085 C 
BRANCH  22  23
HETATM   23  C   UNK     0      -0.838   4.736 -10.620  0.00  0.00    -0.021 A 
HETATM   24  C   UNK     0      -1.037   4.533  -9.264  0.00  0.00     0.072 A 
HETATM   25  C   UNK     0      -2.130   5.133  -8.639  0.00  0.00     0.037 A 
HETATM   26  C   UNK     0      -3.009   5.924  -9.378  0.00  0.00     0.003 A 
HETATM   27  C   UNK     0      -2.795   6.118 -10.742  0.00  0.00     0.001 A 
HETATM   28  C   UNK     0      -1.700   5.519 -11.368  0.00  0.00     0.010 A 
BRANCH  24  29
HETATM   29  O   UNK     0      -0.188   3.763  -8.529  0.00  0.00    -0.360 OA
HETATM   30  H   UNK     0       0.427   3.307  -9.129  0.00  0.00     0.217 HD
ENDBRANCH  24  29
ENDBRANCH  22  23
ENDBRANCH   8  22
TORSDOF 6
ENDMDL
MODEL 9
REMARK VINA RESULT:      -6.4      2.912      9.315
REMARK  6 active torsions:
REMARK  status: ('A' for Active; 'I' for Inactive)
REMARK    1  A    between atoms: O_2  and  C_12 
REMARK    2  A    between atoms: O_4  and  C_16 
REMARK    3  A    between atoms: O_5  and  C_20 
REMARK    4  A    between atoms: C_6  and  C_13 
REMARK    5  A    between atoms: C_11  and  C_14 
REMARK    6  A    between atoms: C_14  and  C_17 
ROOT
HETATM    1  O   UNK     0      -0.826   0.076 -12.169  0.00  0.00    -0.340 OA
HETATM    2  O   UNK     0       1.698  -2.242  -9.914  0.00  0.00    -0.292 OA
HETATM    3  C   UNK     0      -0.666   0.320 -10.762  0.00  0.00     0.169 C 
HETATM    4  C   UNK     0       0.732  -0.080 -10.293  0.00  0.00     0.121 C 
HETATM    5  C   UNK     0       0.262  -2.072 -11.780  0.00  0.00     0.077 A 
HETATM    6  C   UNK     0      -0.571  -1.225 -12.517  0.00  0.00     0.089 A 
HETATM    7  C   UNK     0       0.950  -1.541 -10.585  0.00  0.00     0.167 C 
HETATM    8  C   UNK     0      -0.142  -3.853 -13.356  0.00  0.00     0.014 A 
HETATM    9  C   UNK     0       0.473  -3.389 -12.193  0.00  0.00     0.091 A 
HETATM   10  C   UNK     0      -1.167  -1.689 -13.691  0.00  0.00     0.075 A 
HETATM   11  C   UNK     0      -0.957  -3.004 -14.106  0.00  0.00     0.077 A 
ENDROOT
BRANCH   3  12
HETATM   12  C   UNK     0      -0.933   1.786 -10.496  0.00  0.00    -0.029 A 
HETATM   13  C   UNK     0      -1.178   2.654 -11.561  0.00  0.00     0.010 A 
HETATM   14  C   UNK     0      -1.425   4.004 -11.317  0.00  0.00     0.001 A 
HETATM   15  C   UNK     0      -1.426   4.488 -10.008  0.00  0.00     0.000 A 
HETATM   16  C   UNK     0      -1.181   3.620  -8.944  0.00  0.00     0.001 A 
HETATM   17  C   UNK     0      -0.934   2.269  -9.189  0.00  0.00     0.010 A 
ENDBRANCH   3  12
BRANCH   9  18
HETATM   18  O   UNK     0       1.274  -4.244 -11.495  0.00  0.00    -0.359 OA
HETATM   19  H   UNK     0       0.748  -4.860 -10.964  0.00  0.00     0.217 HD
ENDBRANCH   9  18
BRANCH  11  20
HETATM   20  O   UNK     0      -1.557  -3.443 -15.248  0.00  0.00    -0.360 OA
HETATM   21  H   UNK     0      -2.510  -3.566 -15.136  0.00  0.00     0.217 HD
ENDBRANCH  11  20
BRANCH   8  22
HETATM   22  C   UNK     0       0.074  -5.263 -13.809  0.00  0.00     0.085 C 
BRANCH  22  23
HETATM   23  C   UNK     0      -1.052  -6.204 -13.436  0.00  0.00    -0.021 A 
HETATM   24  C   UNK     0      -1.831  -6.778 -14.426  0.00  0.00     0.072 A 
HETATM   25  C   UNK     0      -2.864  -7.643 -14.064  0.00  0.00     0.037 A 
HETATM   26  C   UNK     0      -3.103  -7.920 -12.719  0.00  0.00     0.003 A 
HETATM   27  C   UNK     0      -2.309  -7.333 -11.734  0.00  0.00     0.001 A 
HETATM   28  C   UNK     0      -1.275  -6.469 -12.096  0.00  0.00     0.010 A 
BRANCH  24  29
HETATM   29  O   UNK     0      -1.612  -6.517 -15.745  0.00  0.00    -0.360 OA
HETATM   30  H   UNK     0      -1.533  -5.555 -15.869  0.00  0.00     0.217 HD
ENDBRANCH  24  29
ENDBRANCH  22  23
ENDBRANCH   8  22
TORSDOF 6
ENDMDL
