REMARK VINA RESULT:      -7.3      0.000      0.000
REMARK  6 active torsions:
REMARK  status: ('A' for Active; 'I' for Inactive)
REMARK    1  A    between atoms: O_2  and  C_12 
REMARK    2  A    between atoms: O_4  and  C_16 
REMARK    3  A    between atoms: O_5  and  C_20 
REMARK    4  A    between atoms: C_6  and  C_13 
REMARK    5  A    between atoms: C_11  and  C_14 
REMARK    6  A    between atoms: C_14  and  C_17 
ROOT
HETATM    1  O   UNK     0      -0.594  -0.082 -12.783  0.00  0.00    -0.340 OA
HETATM    2  O   UNK     0      -2.168   3.031 -14.942  0.00  0.00    -0.292 OA
HETATM    3  C   UNK     0      -1.620  -0.312 -13.762  0.00  0.00     0.169 C 
HETATM    4  C   UNK     0      -1.542   0.717 -14.889  0.00  0.00     0.121 C 
HETATM    5  C   UNK     0      -1.170   2.283 -12.937  0.00  0.00     0.077 A 
HETATM    6  C   UNK     0      -0.629   1.185 -12.262  0.00  0.00     0.089 A 
HETATM    7  C   UNK     0      -1.694   2.097 -14.306  0.00  0.00     0.167 C 
HETATM    8  C   UNK     0      -0.625   3.711 -11.070  0.00  0.00     0.014 A 
HETATM    9  C   UNK     0      -1.176   3.546 -12.342  0.00  0.00     0.091 A 
HETATM   10  C   UNK     0      -0.060   1.360 -10.999  0.00  0.00     0.075 A 
HETATM   11  C   UNK     0      -0.064   2.622 -10.403  0.00  0.00     0.077 A 
ENDROOT
BRANCH   3  12
HETATM   12  C   UNK     0      -1.465  -1.721 -14.296  0.00  0.00    -0.029 A 
HETATM   13  C   UNK     0      -1.699  -1.984 -15.646  0.00  0.00     0.010 A 
HETATM   14  C   UNK     0      -1.556  -3.280 -16.138  0.00  0.00     0.001 A 
HETATM   15  C   UNK     0      -1.179  -4.315 -15.281  0.00  0.00     0.000 A 
HETATM   16  C   UNK     0      -0.944  -4.051 -13.931  0.00  0.00     0.001 A 
HETATM   17  C   UNK     0      -1.088  -2.753 -13.439  0.00  0.00     0.010 A 
ENDBRANCH   3  12
BRANCH   9  18
HETATM   18  O   UNK     0      -1.701   4.637 -12.970  0.00  0.00    -0.359 OA
HETATM   19  H   UNK     0      -1.059   5.031 -13.579  0.00  0.00     0.217 HD
ENDBRANCH   9  18
BRANCH  11  20
HETATM   20  O   UNK     0       0.485   2.770  -9.164  0.00  0.00    -0.360 OA
HETATM   21  H   UNK     0       0.142   2.124  -8.532  0.00  0.00     0.217 HD
ENDBRANCH  11  20
BRANCH   8  22
HETATM   22  C   UNK     0      -0.625   5.058 -10.420  0.00  0.00     0.085 C 
BRANCH  22  23
HETATM   23  C   UNK     0      -2.011   5.621 -10.184  0.00  0.00    -0.021 A 
HETATM   24  C   UNK     0      -2.388   6.808 -10.790  0.00  0.00     0.072 A 
HETATM   25  C   UNK     0      -3.668   7.312 -10.562  0.00  0.00     0.037 A 
HETATM   26  C   UNK     0      -4.552   6.624  -9.732  0.00  0.00     0.003 A 
HETATM   27  C   UNK     0      -4.157   5.430  -9.130  0.00  0.00     0.001 A 
HETATM   28  C   UNK     0      -2.876   4.925  -9.358  0.00  0.00     0.010 A 
BRANCH  24  29
HETATM   29  O   UNK     0      -1.536   7.494 -11.603  0.00  0.00    -0.360 OA
HETATM   30  H   UNK     0      -0.621   7.249 -11.381  0.00  0.00     0.217 HD
ENDBRANCH  24  29
ENDBRANCH  22  23
ENDBRANCH   8  22
TORSDOF 6
