REMARK  6 active torsions:
REMARK  status: ('A' for Active; 'I' for Inactive)
REMARK    1  A    between atoms: O_2  and  C_12 
REMARK    2  A    between atoms: O_4  and  C_16 
REMARK    3  A    between atoms: O_5  and  C_20 
REMARK    4  A    between atoms: C_6  and  C_13 
REMARK    5  A    between atoms: C_11  and  C_14 
REMARK    6  A    between atoms: C_14  and  C_17 
ROOT
HETATM    1  O   UNK     0      -2.176  -0.778   0.047  0.00  0.00    -0.340 OA
HETATM    2  O   UNK     0      -1.024   3.159   0.011  0.00  0.00    -0.292 OA
HETATM    3  C   UNK     0      -3.117   0.265   0.348  0.00  0.00     0.169 C 
HETATM    4  C   UNK     0      -2.760   1.554  -0.390  0.00  0.00     0.121 C 
HETATM    5  C   UNK     0      -0.431   0.899   0.349  0.00  0.00     0.077 A 
HETATM    6  C   UNK     0      -0.881  -0.424   0.325  0.00  0.00     0.089 A 
HETATM    7  C   UNK     0      -1.375   1.985   0.014  0.00  0.00     0.167 C 
HETATM    8  C   UNK     0       1.792   0.141   0.902  0.00  0.00     0.014 A 
HETATM    9  C   UNK     0       0.904   1.186   0.644  0.00  0.00     0.091 A 
HETATM   10  C   UNK     0       0.017  -1.466   0.563  0.00  0.00     0.075 A 
HETATM   11  C   UNK     0       1.351  -1.182   0.857  0.00  0.00     0.077 A 
ENDROOT
BRANCH   3  12
HETATM   12  C   UNK     0      -4.502  -0.216  -0.030  0.00  0.00    -0.029 A 
HETATM   13  C   UNK     0      -5.611   0.211   0.700  0.00  0.00     0.010 A 
HETATM   14  C   UNK     0      -6.887  -0.231   0.352  0.00  0.00     0.001 A 
HETATM   15  C   UNK     0      -7.054  -1.101  -0.726  0.00  0.00     0.000 A 
HETATM   16  C   UNK     0      -5.944  -1.528  -1.456  0.00  0.00     0.001 A 
HETATM   17  C   UNK     0      -4.668  -1.085  -1.107  0.00  0.00     0.010 A 
ENDBRANCH   3  12
BRANCH   9  18
HETATM   18  O   UNK     0       1.375   2.465   0.682  0.00  0.00    -0.359 OA
HETATM   19  H   UNK     0       2.290   2.509   0.366  0.00  0.00     0.217 HD
ENDBRANCH   9  18
BRANCH  11  20
HETATM   20  O   UNK     0       2.210  -2.212   1.099  0.00  0.00    -0.360 OA
HETATM   21  H   UNK     0       3.060  -1.906   1.444  0.00  0.00     0.217 HD
ENDBRANCH  11  20
BRANCH   8  22
HETATM   22  C   UNK     0       3.224   0.434   1.221  0.00  0.00     0.085 C 
BRANCH  22  23
HETATM   23  C   UNK     0       4.175   0.146   0.079  0.00  0.00    -0.021 A 
HETATM   24  C   UNK     0       5.193  -0.779   0.242  0.00  0.00     0.072 A 
HETATM   25  C   UNK     0       6.060  -1.032  -0.821  0.00  0.00     0.037 A 
HETATM   26  C   UNK     0       5.897  -0.357  -2.030  0.00  0.00     0.003 A 
HETATM   27  C   UNK     0       4.867   0.571  -2.178  0.00  0.00     0.001 A 
HETATM   28  C   UNK     0       3.999   0.824  -1.115  0.00  0.00     0.010 A 
BRANCH  24  29
HETATM   29  O   UNK     0       5.366  -1.446   1.417  0.00  0.00    -0.360 OA
HETATM   30  H   UNK     0       6.126  -2.047   1.331  0.00  0.00     0.217 HD
ENDBRANCH  24  29
ENDBRANCH  22  23
ENDBRANCH   8  22
TORSDOF 6
