MODEL 1
REMARK VINA RESULT:      -6.9      0.000      0.000
REMARK  7 active torsions:
REMARK  status: ('A' for Active; 'I' for Inactive)
REMARK    1  A    between atoms: O_1  and  C_12 
REMARK    2  A    between atoms: O_2  and  C_23 
REMARK    3  A    between atoms: O_2  and  C_37 
REMARK    4  A    between atoms: O_3  and  C_35 
REMARK    5  A    between atoms: O_6  and  C_43 
REMARK    6  A    between atoms: C_28  and  C_35 
REMARK    7  A    between atoms: C_37  and  C_38 
ROOT
HETATM    1  O   UNK     0      -0.000  -2.499 -10.787  0.00  0.00    -0.395 OA
HETATM    2  H   UNK     0      -0.069  -3.463 -10.883  0.00  0.00     0.210 HD
ENDROOT
BRANCH   1   3
HETATM    3  C   UNK     0      -1.154  -2.027 -10.096  0.00  0.00     0.128 C 
HETATM    4  C   UNK     0      -1.064  -0.487  -9.834  0.00  0.00    -0.002 C 
HETATM    5  C   UNK     0      -2.245  -0.062  -8.870  0.00  0.00     0.009 C 
HETATM    6  C   UNK     0      -1.210   0.394 -11.227  0.00  0.00    -0.010 C 
HETATM    7  C   UNK     0       0.315  -0.180  -9.170  0.00  0.00     0.019 C 
HETATM    8  C   UNK     0      -2.561  -0.983  -7.605  0.00  0.00    -0.035 C 
HETATM    9  C   UNK     0      -2.157   1.442  -8.532  0.00  0.00     0.033 C 
HETATM   10  C   UNK     0      -2.614  -2.474  -8.075  0.00  0.00     0.007 C 
HETATM   11  C   UNK     0      -3.979  -0.583  -7.061  0.00  0.00     0.012 C 
HETATM   12  C   UNK     0      -1.553  -0.783  -6.446  0.00  0.00     0.016 C 
HETATM   13  C   UNK     0      -1.333  -2.870  -8.830  0.00  0.00     0.038 C 
HETATM   14  C   UNK     0      -3.071  -3.526  -6.987  0.00  0.00    -0.016 C 
HETATM   15  C   UNK     0      -4.032  -2.872  -5.948  0.00  0.00     0.140 C 
HETATM   16  C   UNK     0      -1.895  -4.169  -6.219  0.00  0.00     0.018 C 
HETATM   17  C   UNK     0      -3.792  -4.689  -7.726  0.00  0.00     0.018 C 
HETATM   18  C   UNK     0      -4.846  -1.740  -6.557  0.00  0.00     0.034 C 
HETATM   19  C   UNK     0      -1.781   2.317  -9.686  0.00  0.00    -0.022 C 
HETATM   20  C   UNK     0      -1.366   1.901 -10.899  0.00  0.00    -0.069 C 
HETATM   21  C   UNK     0      -1.025   2.976 -11.952  0.00  0.00     0.037 C 
HETATM   22  C   UNK     0       0.286   2.639 -12.717  0.00  0.00    -0.036 C 
HETATM   23  C   UNK     0      -2.231   3.304 -12.883  0.00  0.00     0.096 C 
HETATM   24  C   UNK     0       0.195   1.202 -13.278  0.00  0.00     0.011 C 
HETATM   25  C   UNK     0       0.538   3.646 -13.865  0.00  0.00     0.010 C 
HETATM   26  C   UNK     0       1.505   2.759 -11.766  0.00  0.00     0.016 C 
HETATM   27  C   UNK     0       0.001   0.149 -12.181  0.00  0.00     0.015 C 
HETATM   28  C   UNK     0      -0.659   3.866 -14.777  0.00  0.00     0.006 C 
HETATM   29  C   UNK     0      -1.880   4.329 -13.981  0.00  0.00    -0.004 C 
HETATM   30  C   UNK     0      -3.053   4.557 -14.945  0.00  0.00     0.011 C 
HETATM   31  C   UNK     0      -2.485  -0.025 -12.022  0.00  0.00     0.021 C 
BRANCH  15  32
HETATM   32  O   UNK     0      -4.918  -3.842  -5.388  0.00  0.00    -0.311 OA
BRANCH  32  33
HETATM   33  C   UNK     0      -4.839  -4.018  -4.031  0.00  0.00     0.293 C 
HETATM   34  O   UNK     0      -3.799  -4.273  -3.434  0.00  0.00    -0.259 OA
BRANCH  33  35
HETATM   35  C   UNK     0      -6.131  -3.873  -3.354  0.00  0.00     0.039 A 
HETATM   36  C   UNK     0      -6.403  -4.632  -2.222  0.00  0.00     0.020 A 
HETATM   37  C   UNK     0      -7.632  -4.493  -1.577  0.00  0.00     0.037 A 
HETATM   38  C   UNK     0      -8.580  -3.597  -2.070  0.00  0.00     0.065 A 
HETATM   39  C   UNK     0      -8.300  -2.840  -3.207  0.00  0.00     0.037 A 
HETATM   40  C   UNK     0      -7.070  -2.978  -3.852  0.00  0.00     0.020 A 
BRANCH  38  41
HETATM   41  O   UNK     0      -9.779  -3.460  -1.440  0.00  0.00    -0.361 OA
HETATM   42  H   UNK     0      -9.959  -2.514  -1.307  0.00  0.00     0.217 HD
ENDBRANCH  38  41
ENDBRANCH  33  35
ENDBRANCH  32  33
ENDBRANCH  15  32
BRANCH  23  43
HETATM   43  C   UNK     0      -3.361   3.856 -12.055  0.00  0.00     0.144 C 
HETATM   44  O   UNK     0      -4.443   3.311 -11.892  0.00  0.00    -0.650 OA
BRANCH  43  45
HETATM   45  O   UNK     0      -3.019   5.049 -11.511  0.00  0.00    -0.776 OA
HETATM   46  H   UNK     0      -2.266   5.464 -11.982  0.00  0.00     0.167 HD
ENDBRANCH  43  45
ENDBRANCH  23  43
ENDBRANCH   1   3
TORSDOF 7
ENDMDL
MODEL 2
REMARK VINA RESULT:      -6.8      3.332      5.927
REMARK  7 active torsions:
REMARK  status: ('A' for Active; 'I' for Inactive)
REMARK    1  A    between atoms: O_1  and  C_12 
REMARK    2  A    between atoms: O_2  and  C_23 
REMARK    3  A    between atoms: O_2  and  C_37 
REMARK    4  A    between atoms: O_3  and  C_35 
REMARK    5  A    between atoms: O_6  and  C_43 
REMARK    6  A    between atoms: C_28  and  C_35 
REMARK    7  A    between atoms: C_37  and  C_38 
ROOT
HETATM    1  O   UNK     0      -5.726  -0.644  -8.415  0.00  0.00    -0.395 OA
HETATM    2  H   UNK     0      -4.966  -0.756  -9.010  0.00  0.00     0.210 HD
ENDROOT
BRANCH   1   3
HETATM    3  C   UNK     0      -5.364  -1.120  -7.120  0.00  0.00     0.128 C 
HETATM    4  C   UNK     0      -4.047  -1.964  -7.178  0.00  0.00    -0.002 C 
HETATM    5  C   UNK     0      -3.820  -2.656  -5.774  0.00  0.00     0.009 C 
HETATM    6  C   UNK     0      -2.719  -1.030  -7.499  0.00  0.00    -0.010 C 
HETATM    7  C   UNK     0      -4.201  -3.043  -8.296  0.00  0.00     0.019 C 
HETATM    8  C   UNK     0      -5.071  -3.336  -5.052  0.00  0.00    -0.035 C 
HETATM    9  C   UNK     0      -2.563  -3.552  -5.806  0.00  0.00     0.033 C 
HETATM   10  C   UNK     0      -6.275  -2.338  -5.095  0.00  0.00     0.007 C 
HETATM   11  C   UNK     0      -4.684  -3.583  -3.550  0.00  0.00     0.012 C 
HETATM   12  C   UNK     0      -5.445  -4.710  -5.661  0.00  0.00     0.016 C 
HETATM   13  C   UNK     0      -6.563  -1.868  -6.531  0.00  0.00     0.038 C 
HETATM   14  C   UNK     0      -7.562  -2.773  -4.289  0.00  0.00    -0.016 C 
HETATM   15  C   UNK     0      -7.184  -3.679  -3.078  0.00  0.00     0.140 C 
HETATM   16  C   UNK     0      -8.602  -3.527  -5.149  0.00  0.00     0.018 C 
HETATM   17  C   UNK     0      -8.269  -1.480  -3.791  0.00  0.00     0.018 C 
HETATM   18  C   UNK     0      -5.802  -3.351  -2.530  0.00  0.00     0.034 C 
HETATM   19  C   UNK     0      -1.403  -2.969  -6.549  0.00  0.00    -0.022 C 
HETATM   20  C   UNK     0      -1.420  -1.852  -7.302  0.00  0.00    -0.069 C 
HETATM   21  C   UNK     0      -0.105  -1.424  -7.987  0.00  0.00     0.037 C 
HETATM   22  C   UNK     0      -0.341  -0.977  -9.458  0.00  0.00    -0.036 C 
HETATM   23  C   UNK     0       0.705  -0.399  -7.139  0.00  0.00     0.096 C 
HETATM   24  C   UNK     0      -1.456   0.091  -9.495  0.00  0.00     0.011 C 
HETATM   25  C   UNK     0       0.958  -0.416 -10.086  0.00  0.00     0.010 C 
HETATM   26  C   UNK     0      -0.746  -2.195 -10.329  0.00  0.00     0.016 C 
HETATM   27  C   UNK     0      -2.787  -0.423  -8.937  0.00  0.00     0.015 C 
HETATM   28  C   UNK     0       1.661   0.632  -9.236  0.00  0.00     0.006 C 
HETATM   29  C   UNK     0       1.988   0.085  -7.846  0.00  0.00    -0.004 C 
HETATM   30  C   UNK     0       2.712   1.169  -7.036  0.00  0.00     0.011 C 
HETATM   31  C   UNK     0      -2.636   0.180  -6.518  0.00  0.00     0.021 C 
BRANCH  15  32
HETATM   32  O   UNK     0      -8.147  -3.562  -2.030  0.00  0.00    -0.311 OA
BRANCH  32  33
HETATM   33  C   UNK     0      -8.005  -4.434  -0.982  0.00  0.00     0.293 C 
HETATM   34  O   UNK     0      -7.407  -4.164   0.054  0.00  0.00    -0.259 OA
BRANCH  33  35
HETATM   35  C   UNK     0      -8.645  -5.730  -1.219  0.00  0.00     0.039 A 
HETATM   36  C   UNK     0      -9.834  -5.789  -1.937  0.00  0.00     0.020 A 
HETATM   37  C   UNK     0     -10.443  -7.023  -2.164  0.00  0.00     0.037 A 
HETATM   38  C   UNK     0      -9.858  -8.190  -1.671  0.00  0.00     0.065 A 
HETATM   39  C   UNK     0      -8.666  -8.122  -0.951  0.00  0.00     0.037 A 
HETATM   40  C   UNK     0      -8.056  -6.888  -0.724  0.00  0.00     0.020 A 
BRANCH  38  41
HETATM   41  O   UNK     0     -10.451  -9.394  -1.893  0.00  0.00    -0.361 OA
HETATM   42  H   UNK     0     -10.488  -9.556  -2.851  0.00  0.00     0.217 HD
ENDBRANCH  38  41
ENDBRANCH  33  35
ENDBRANCH  32  33
ENDBRANCH  15  32
BRANCH  23  43
HETATM   43  C   UNK     0       1.089  -1.033  -5.829  0.00  0.00     0.144 C 
HETATM   44  O   UNK     0       2.023  -1.806  -5.669  0.00  0.00    -0.650 OA
BRANCH  43  45
HETATM   45  O   UNK     0       0.253  -0.634  -4.839  0.00  0.00    -0.776 OA
HETATM   46  H   UNK     0      -0.581  -0.261  -5.194  0.00  0.00     0.167 HD
ENDBRANCH  43  45
ENDBRANCH  23  43
ENDBRANCH   1   3
TORSDOF 7
ENDMDL
MODEL 3
REMARK VINA RESULT:      -6.6      7.551     10.716
REMARK  7 active torsions:
REMARK  status: ('A' for Active; 'I' for Inactive)
REMARK    1  A    between atoms: O_1  and  C_12 
REMARK    2  A    between atoms: O_2  and  C_23 
REMARK    3  A    between atoms: O_2  and  C_37 
REMARK    4  A    between atoms: O_3  and  C_35 
REMARK    5  A    between atoms: O_6  and  C_43 
REMARK    6  A    between atoms: C_28  and  C_35 
REMARK    7  A    between atoms: C_37  and  C_38 
ROOT
HETATM    1  O   UNK     0      -7.222  -2.526 -16.377  0.00  0.00    -0.395 OA
HETATM    2  H   UNK     0      -7.659  -2.919 -17.150  0.00  0.00     0.210 HD
ENDROOT
BRANCH   1   3
HETATM    3  C   UNK     0      -6.968  -3.556 -15.425  0.00  0.00     0.128 C 
HETATM    4  C   UNK     0      -7.919  -3.428 -14.189  0.00  0.00    -0.002 C 
HETATM    5  C   UNK     0      -7.445  -4.441 -13.070  0.00  0.00     0.009 C 
HETATM    6  C   UNK     0      -9.488  -3.795 -14.566  0.00  0.00    -0.010 C 
HETATM    7  C   UNK     0      -7.845  -1.961 -13.659  0.00  0.00     0.019 C 
HETATM    8  C   UNK     0      -5.882  -4.550 -12.759  0.00  0.00    -0.035 C 
HETATM    9  C   UNK     0      -8.318  -4.302 -11.804  0.00  0.00     0.033 C 
HETATM   10  C   UNK     0      -5.112  -4.674 -14.114  0.00  0.00     0.007 C 
HETATM   11  C   UNK     0      -5.647  -5.864 -11.931  0.00  0.00     0.012 C 
HETATM   12  C   UNK     0      -5.353  -3.370 -11.906  0.00  0.00     0.016 C 
HETATM   13  C   UNK     0      -5.477  -3.530 -15.075  0.00  0.00     0.038 C 
HETATM   14  C   UNK     0      -3.560  -4.951 -14.004  0.00  0.00    -0.016 C 
HETATM   15  C   UNK     0      -3.223  -5.735 -12.699  0.00  0.00     0.140 C 
HETATM   16  C   UNK     0      -2.701  -3.666 -14.030  0.00  0.00     0.018 C 
HETATM   17  C   UNK     0      -3.136  -5.778 -15.251  0.00  0.00     0.018 C 
HETATM   18  C   UNK     0      -4.369  -6.637 -12.264  0.00  0.00     0.034 C 
HETATM   19  C   UNK     0      -9.778  -4.116 -12.074  0.00  0.00    -0.022 C 
HETATM   20  C   UNK     0     -10.344  -3.899 -13.277  0.00  0.00    -0.069 C 
HETATM   21  C   UNK     0     -11.876  -3.732 -13.334  0.00  0.00     0.037 C 
HETATM   22  C   UNK     0     -12.295  -2.559 -14.265  0.00  0.00    -0.036 C 
HETATM   23  C   UNK     0     -12.613  -5.072 -13.638  0.00  0.00     0.096 C 
HETATM   24  C   UNK     0     -11.621  -2.736 -15.644  0.00  0.00     0.011 C 
HETATM   25  C   UNK     0     -13.833  -2.495 -14.425  0.00  0.00     0.010 C 
HETATM   26  C   UNK     0     -11.872  -1.204 -13.640  0.00  0.00     0.016 C 
HETATM   27  C   UNK     0     -10.092  -2.751 -15.558  0.00  0.00     0.015 C 
HETATM   28  C   UNK     0     -14.479  -3.822 -14.791  0.00  0.00     0.006 C 
HETATM   29  C   UNK     0     -14.141  -4.902 -13.762  0.00  0.00    -0.004 C 
HETATM   30  C   UNK     0     -14.830  -6.213 -14.162  0.00  0.00     0.011 C 
HETATM   31  C   UNK     0      -9.583  -5.180 -15.279  0.00  0.00     0.021 C 
BRANCH  15  32
HETATM   32  O   UNK     0      -2.041  -6.518 -12.862  0.00  0.00    -0.311 OA
BRANCH  32  33
HETATM   33  C   UNK     0      -1.180  -6.541 -11.796  0.00  0.00     0.293 C 
HETATM   34  O   UNK     0      -0.482  -7.505 -11.502  0.00  0.00    -0.259 OA
BRANCH  33  35
HETATM   35  C   UNK     0      -1.175  -5.290 -11.032  0.00  0.00     0.039 A 
HETATM   36  C   UNK     0      -0.447  -4.203 -11.501  0.00  0.00     0.020 A 
HETATM   37  C   UNK     0      -0.441  -3.012 -10.775  0.00  0.00     0.037 A 
HETATM   38  C   UNK     0      -1.164  -2.917  -9.585  0.00  0.00     0.065 A 
HETATM   39  C   UNK     0      -1.891  -4.013  -9.122  0.00  0.00     0.037 A 
HETATM   40  C   UNK     0      -1.897  -5.205  -9.848  0.00  0.00     0.020 A 
BRANCH  38  41
HETATM   41  O   UNK     0      -1.160  -1.755  -8.878  0.00  0.00    -0.361 OA
HETATM   42  H   UNK     0      -0.777  -1.051  -9.429  0.00  0.00     0.217 HD
ENDBRANCH  38  41
ENDBRANCH  33  35
ENDBRANCH  32  33
ENDBRANCH  15  32
BRANCH  23  43
HETATM   43  C   UNK     0     -12.327  -6.056 -12.535  0.00  0.00     0.144 C 
HETATM   44  O   UNK     0     -11.704  -7.098 -12.669  0.00  0.00    -0.650 OA
BRANCH  43  45
HETATM   45  O   UNK     0     -12.861  -5.631 -11.363  0.00  0.00    -0.776 OA
HETATM   46  H   UNK     0     -13.489  -6.284 -10.989  0.00  0.00     0.167 HD
ENDBRANCH  43  45
ENDBRANCH  23  43
ENDBRANCH   1   3
TORSDOF 7
ENDMDL
MODEL 4
REMARK VINA RESULT:      -6.5      5.448      9.199
REMARK  7 active torsions:
REMARK  status: ('A' for Active; 'I' for Inactive)
REMARK    1  A    between atoms: O_1  and  C_12 
REMARK    2  A    between atoms: O_2  and  C_23 
REMARK    3  A    between atoms: O_2  and  C_37 
REMARK    4  A    between atoms: O_3  and  C_35 
REMARK    5  A    between atoms: O_6  and  C_43 
REMARK    6  A    between atoms: C_28  and  C_35 
REMARK    7  A    between atoms: C_37  and  C_38 
ROOT
HETATM    1  O   UNK     0      -7.043   2.663 -11.829  0.00  0.00    -0.395 OA
HETATM    2  H   UNK     0      -7.720   2.382 -12.466  0.00  0.00     0.210 HD
ENDROOT
BRANCH   1   3
HETATM    3  C   UNK     0      -6.629   1.527 -11.073  0.00  0.00     0.128 C 
HETATM    4  C   UNK     0      -7.673   1.179  -9.961  0.00  0.00    -0.002 C 
HETATM    5  C   UNK     0      -7.061   0.070  -9.013  0.00  0.00     0.009 C 
HETATM    6  C   UNK     0      -9.082   0.581 -10.590  0.00  0.00    -0.010 C 
HETATM    7  C   UNK     0      -7.980   2.477  -9.149  0.00  0.00     0.019 C 
HETATM    8  C   UNK     0      -5.543   0.227  -8.542  0.00  0.00    -0.035 C 
HETATM    9  C   UNK     0      -8.035  -0.258  -7.860  0.00  0.00     0.033 C 
HETATM   10  C   UNK     0      -4.667   0.567  -9.792  0.00  0.00     0.007 C 
HETATM   11  C   UNK     0      -5.073  -1.156  -7.965  0.00  0.00     0.012 C 
HETATM   12  C   UNK     0      -5.367   1.277  -7.417  0.00  0.00     0.016 C 
HETATM   13  C   UNK     0      -5.215   1.790 -10.547  0.00  0.00     0.038 C 
HETATM   14  C   UNK     0      -3.106   0.606  -9.551  0.00  0.00    -0.016 C 
HETATM   15  C   UNK     0      -2.695  -0.355  -8.394  0.00  0.00     0.140 C 
HETATM   16  C   UNK     0      -2.568   2.017  -9.220  0.00  0.00     0.018 C 
HETATM   17  C   UNK     0      -2.410   0.179 -10.874  0.00  0.00     0.018 C 
HETATM   18  C   UNK     0      -3.630  -1.551  -8.287  0.00  0.00     0.034 C 
HETATM   19  C   UNK     0      -9.474  -0.329  -8.263  0.00  0.00    -0.022 C 
HETATM   20  C   UNK     0      -9.983   0.021  -9.460  0.00  0.00    -0.069 C 
HETATM   21  C   UNK     0     -11.505  -0.131  -9.668  0.00  0.00     0.037 C 
HETATM   22  C   UNK     0     -12.113   1.102 -10.395  0.00  0.00    -0.036 C 
HETATM   23  C   UNK     0     -11.887  -1.496 -10.316  0.00  0.00     0.096 C 
HETATM   24  C   UNK     0     -11.316   1.377 -11.690  0.00  0.00     0.011 C 
HETATM   25  C   UNK     0     -13.608   0.875 -10.725  0.00  0.00     0.010 C 
HETATM   26  C   UNK     0     -12.063   2.346  -9.470  0.00  0.00     0.016 C 
HETATM   27  C   UNK     0      -9.835   1.666 -11.424  0.00  0.00     0.015 C 
HETATM   28  C   UNK     0     -13.900  -0.446 -11.419  0.00  0.00     0.006 C 
HETATM   29  C   UNK     0     -13.399  -1.628 -10.589  0.00  0.00    -0.004 C 
HETATM   30  C   UNK     0     -13.735  -2.936 -11.319  0.00  0.00     0.011 C 
HETATM   31  C   UNK     0      -8.800  -0.603 -11.566  0.00  0.00     0.021 C 
BRANCH  15  32
HETATM   32  O   UNK     0      -1.354  -0.817  -8.562  0.00  0.00    -0.311 OA
BRANCH  32  33
HETATM   33  C   UNK     0      -1.104  -2.102  -8.157  0.00  0.00     0.293 C 
HETATM   34  O   UNK     0      -0.905  -2.424  -6.990  0.00  0.00    -0.259 OA
BRANCH  33  35
HETATM   35  C   UNK     0      -1.096  -3.065  -9.262  0.00  0.00     0.039 A 
HETATM   36  C   UNK     0      -1.668  -4.319  -9.084  0.00  0.00     0.020 A 
HETATM   37  C   UNK     0      -1.661  -5.236 -10.135  0.00  0.00     0.037 A 
HETATM   38  C   UNK     0      -1.082  -4.892 -11.357  0.00  0.00     0.065 A 
HETATM   39  C   UNK     0      -0.510  -3.631 -11.526  0.00  0.00     0.037 A 
HETATM   40  C   UNK     0      -0.517  -2.714 -10.475  0.00  0.00     0.020 A 
BRANCH  38  41
HETATM   41  O   UNK     0      -1.076  -5.785 -12.383  0.00  0.00    -0.361 OA
HETATM   42  H   UNK     0      -0.479  -6.519 -12.158  0.00  0.00     0.217 HD
ENDBRANCH  38  41
ENDBRANCH  33  35
ENDBRANCH  32  33
ENDBRANCH  15  32
BRANCH  23  43
HETATM   43  C   UNK     0     -11.464  -2.614  -9.401  0.00  0.00     0.144 C 
HETATM   44  O   UNK     0     -10.609  -3.448  -9.661  0.00  0.00    -0.650 OA
BRANCH  43  45
HETATM   45  O   UNK     0     -12.164  -2.576  -8.241  0.00  0.00    -0.776 OA
HETATM   46  H   UNK     0     -13.123  -2.446  -8.397  0.00  0.00     0.167 HD
ENDBRANCH  43  45
ENDBRANCH  23  43
ENDBRANCH   1   3
TORSDOF 7
ENDMDL
MODEL 5
REMARK VINA RESULT:      -6.4     12.214     16.244
REMARK  7 active torsions:
REMARK  status: ('A' for Active; 'I' for Inactive)
REMARK    1  A    between atoms: O_1  and  C_12 
REMARK    2  A    between atoms: O_2  and  C_23 
REMARK    3  A    between atoms: O_2  and  C_37 
REMARK    4  A    between atoms: O_3  and  C_35 
REMARK    5  A    between atoms: O_6  and  C_43 
REMARK    6  A    between atoms: C_28  and  C_35 
REMARK    7  A    between atoms: C_37  and  C_38 
ROOT
HETATM    1  O   UNK     0     -10.856  -4.612   1.234  0.00  0.00    -0.395 OA
HETATM    2  H   UNK     0     -10.246  -3.874   1.071  0.00  0.00     0.210 HD
ENDROOT
BRANCH   1   3
HETATM    3  C   UNK     0     -12.010  -4.438   0.415  0.00  0.00     0.128 C 
HETATM    4  C   UNK     0     -12.039  -5.486  -0.747  0.00  0.00    -0.002 C 
HETATM    5  C   UNK     0     -13.202  -5.105  -1.750  0.00  0.00     0.009 C 
HETATM    6  C   UNK     0     -12.330  -7.020  -0.199  0.00  0.00    -0.010 C 
HETATM    7  C   UNK     0     -10.659  -5.451  -1.477  0.00  0.00     0.019 C 
HETATM    8  C   UNK     0     -13.373  -3.573  -2.167  0.00  0.00    -0.035 C 
HETATM    9  C   UNK     0     -13.225  -6.077  -2.950  0.00  0.00     0.033 C 
HETATM   10  C   UNK     0     -13.321  -2.696  -0.872  0.00  0.00     0.007 C 
HETATM   11  C   UNK     0     -14.791  -3.409  -2.822  0.00  0.00     0.012 C 
HETATM   12  C   UNK     0     -12.328  -3.112  -3.213  0.00  0.00     0.016 C 
HETATM   13  C   UNK     0     -12.051  -2.980  -0.052  0.00  0.00     0.038 C 
HETATM   14  C   UNK     0     -13.631  -1.159  -1.067  0.00  0.00    -0.016 C 
HETATM   15  C   UNK     0     -14.590  -0.930  -2.274  0.00  0.00     0.140 C 
HETATM   16  C   UNK     0     -12.366  -0.298  -1.286  0.00  0.00     0.018 C 
HETATM   17  C   UNK     0     -14.285  -0.637   0.244  0.00  0.00     0.018 C 
HETATM   18  C   UNK     0     -15.528  -2.110  -2.488  0.00  0.00     0.034 C 
HETATM   19  C   UNK     0     -12.985  -7.510  -2.593  0.00  0.00    -0.022 C 
HETATM   20  C   UNK     0     -12.598  -7.977  -1.389  0.00  0.00    -0.069 C 
HETATM   21  C   UNK     0     -12.405  -9.500  -1.235  0.00  0.00     0.037 C 
HETATM   22  C   UNK     0     -11.110  -9.839  -0.443  0.00  0.00    -0.036 C 
HETATM   23  C   UNK     0     -13.680 -10.212  -0.692  0.00  0.00     0.096 C 
HETATM   24  C   UNK     0     -11.105  -9.057   0.889  0.00  0.00     0.011 C 
HETATM   25  C   UNK     0     -11.004 -11.360  -0.171  0.00  0.00     0.010 C 
HETATM   26  C   UNK     0      -9.859  -9.465  -1.280  0.00  0.00     0.016 C 
HETATM   27  C   UNK     0     -11.152  -7.539   0.685  0.00  0.00     0.015 C 
HETATM   28  C   UNK     0     -12.260 -11.977   0.423  0.00  0.00     0.006 C 
HETATM   29  C   UNK     0     -13.474 -11.725  -0.471  0.00  0.00    -0.004 C 
HETATM   30  C   UNK     0     -14.710 -12.383   0.159  0.00  0.00     0.011 C 
HETATM   31  C   UNK     0     -13.603  -7.060   0.702  0.00  0.00     0.021 C 
BRANCH  15  32
HETATM   32  O   UNK     0     -15.360   0.260  -2.100  0.00  0.00    -0.311 OA
BRANCH  32  33
HETATM   33  C   UNK     0     -15.080   1.291  -2.958  0.00  0.00     0.293 C 
HETATM   34  O   UNK     0     -15.392   1.296  -4.144  0.00  0.00    -0.259 OA
BRANCH  33  35
HETATM   35  C   UNK     0     -14.364   2.397  -2.317  0.00  0.00     0.039 A 
HETATM   36  C   UNK     0     -14.777   2.851  -1.070  0.00  0.00     0.020 A 
HETATM   37  C   UNK     0     -14.096   3.903  -0.458  0.00  0.00     0.037 A 
HETATM   38  C   UNK     0     -13.007   4.495  -1.099  0.00  0.00     0.065 A 
HETATM   39  C   UNK     0     -12.600   4.034  -2.351  0.00  0.00     0.037 A 
HETATM   40  C   UNK     0     -13.281   2.981  -2.962  0.00  0.00     0.020 A 
BRANCH  38  41
HETATM   41  O   UNK     0     -12.342   5.521  -0.503  0.00  0.00    -0.361 OA
HETATM   42  H   UNK     0     -11.556   5.168  -0.051  0.00  0.00     0.217 HD
ENDBRANCH  38  41
ENDBRANCH  33  35
ENDBRANCH  32  33
ENDBRANCH  15  32
BRANCH  23  43
HETATM   43  C   UNK     0     -14.810 -10.019  -1.668  0.00  0.00     0.144 C 
HETATM   44  O   UNK     0     -15.835  -9.394  -1.441  0.00  0.00    -0.650 OA
BRANCH  43  45
HETATM   45  O   UNK     0     -14.539 -10.637  -2.844  0.00  0.00    -0.776 OA
HETATM   46  H   UNK     0     -13.578 -10.652  -3.037  0.00  0.00     0.167 HD
ENDBRANCH  43  45
ENDBRANCH  23  43
ENDBRANCH   1   3
TORSDOF 7
ENDMDL
MODEL 6
REMARK VINA RESULT:      -6.4      2.788      3.776
REMARK  7 active torsions:
REMARK  status: ('A' for Active; 'I' for Inactive)
REMARK    1  A    between atoms: O_1  and  C_12 
REMARK    2  A    between atoms: O_2  and  C_23 
REMARK    3  A    between atoms: O_2  and  C_37 
REMARK    4  A    between atoms: O_3  and  C_35 
REMARK    5  A    between atoms: O_6  and  C_43 
REMARK    6  A    between atoms: C_28  and  C_35 
REMARK    7  A    between atoms: C_37  and  C_38 
ROOT
HETATM    1  O   UNK     0      -1.345  -4.700  -9.534  0.00  0.00    -0.395 OA
HETATM    2  H   UNK     0      -0.569  -4.311  -9.098  0.00  0.00     0.210 HD
ENDROOT
BRANCH   1   3
HETATM    3  C   UNK     0      -2.522  -4.146  -8.950  0.00  0.00     0.128 C 
HETATM    4  C   UNK     0      -2.781  -2.694  -9.474  0.00  0.00    -0.002 C 
HETATM    5  C   UNK     0      -3.951  -2.046  -8.630  0.00  0.00     0.009 C 
HETATM    6  C   UNK     0      -3.238  -2.675 -11.064  0.00  0.00    -0.010 C 
HETATM    7  C   UNK     0      -1.467  -1.867  -9.305  0.00  0.00     0.019 C 
HETATM    8  C   UNK     0      -3.941  -2.241  -7.044  0.00  0.00    -0.035 C 
HETATM    9  C   UNK     0      -4.196  -0.587  -9.070  0.00  0.00     0.033 C 
HETATM   10  C   UNK     0      -3.673  -3.750  -6.730  0.00  0.00     0.007 C 
HETATM   11  C   UNK     0      -5.367  -1.865  -6.505  0.00  0.00     0.012 C 
HETATM   12  C   UNK     0      -2.922  -1.318  -6.330  0.00  0.00     0.016 C 
HETATM   13  C   UNK     0      -2.397  -4.251  -7.427  0.00  0.00     0.038 C 
HETATM   14  C   UNK     0      -3.783  -4.168  -5.210  0.00  0.00    -0.016 C 
HETATM   15  C   UNK     0      -4.788  -3.251  -4.449  0.00  0.00     0.140 C 
HETATM   16  C   UNK     0      -2.431  -4.128  -4.461  0.00  0.00     0.018 C 
HETATM   17  C   UNK     0      -4.261  -5.647  -5.158  0.00  0.00     0.018 C 
HETATM   18  C   UNK     0      -5.893  -2.736  -5.360  0.00  0.00     0.034 C 
HETATM   19  C   UNK     0      -4.129  -0.365 -10.549  0.00  0.00    -0.022 C 
HETATM   20  C   UNK     0      -3.722  -1.259 -11.470  0.00  0.00    -0.069 C 
HETATM   21  C   UNK     0      -3.729  -0.823 -12.950  0.00  0.00     0.037 C 
HETATM   22  C   UNK     0      -2.438  -1.275 -13.690  0.00  0.00    -0.036 C 
HETATM   23  C   UNK     0      -5.046  -1.217 -13.684  0.00  0.00     0.096 C 
HETATM   24  C   UNK     0      -2.227  -2.790 -13.472  0.00  0.00     0.011 C 
HETATM   25  C   UNK     0      -2.522  -0.959 -15.203  0.00  0.00     0.010 C 
HETATM   26  C   UNK     0      -1.212  -0.489 -13.155  0.00  0.00     0.016 C 
HETATM   27  C   UNK     0      -2.081  -3.161 -11.993  0.00  0.00     0.015 C 
HETATM   28  C   UNK     0      -3.803  -1.433 -15.870  0.00  0.00     0.006 C 
HETATM   29  C   UNK     0      -5.034  -0.845 -15.180  0.00  0.00    -0.004 C 
HETATM   30  C   UNK     0      -6.298  -1.335 -15.901  0.00  0.00     0.011 C 
HETATM   31  C   UNK     0      -4.434  -3.645 -11.313  0.00  0.00     0.021 C 
BRANCH  15  32
HETATM   32  O   UNK     0      -5.372  -3.939  -3.342  0.00  0.00    -0.311 OA
BRANCH  32  33
HETATM   33  C   UNK     0      -6.576  -3.455  -2.898  0.00  0.00     0.293 C 
HETATM   34  O   UNK     0      -6.842  -2.261  -2.813  0.00  0.00    -0.259 OA
BRANCH  33  35
HETATM   35  C   UNK     0      -7.522  -4.512  -2.532  0.00  0.00     0.039 A 
HETATM   36  C   UNK     0      -8.785  -4.535  -3.114  0.00  0.00     0.020 A 
HETATM   37  C   UNK     0      -9.686  -5.541  -2.766  0.00  0.00     0.037 A 
HETATM   38  C   UNK     0      -9.319  -6.516  -1.839  0.00  0.00     0.065 A 
HETATM   39  C   UNK     0      -8.051  -6.485  -1.260  0.00  0.00     0.037 A 
HETATM   40  C   UNK     0      -7.148  -5.479  -1.608  0.00  0.00     0.020 A 
BRANCH  38  41
HETATM   41  O   UNK     0     -10.197  -7.498  -1.500  0.00  0.00    -0.361 OA
HETATM   42  H   UNK     0     -11.065  -7.293  -1.889  0.00  0.00     0.217 HD
ENDBRANCH  38  41
ENDBRANCH  33  35
ENDBRANCH  32  33
ENDBRANCH  15  32
BRANCH  23  43
HETATM   43  C   UNK     0      -6.207  -0.522 -13.025  0.00  0.00     0.144 C 
HETATM   44  O   UNK     0      -7.118  -1.083 -12.433  0.00  0.00    -0.650 OA
BRANCH  43  45
HETATM   45  O   UNK     0      -6.112   0.822 -13.179  0.00  0.00    -0.776 OA
HETATM   46  H   UNK     0      -5.486   1.220 -12.538  0.00  0.00     0.167 HD
ENDBRANCH  43  45
ENDBRANCH  23  43
ENDBRANCH   1   3
TORSDOF 7
ENDMDL
MODEL 7
REMARK VINA RESULT:      -6.3      1.612      2.145
REMARK  7 active torsions:
REMARK  status: ('A' for Active; 'I' for Inactive)
REMARK    1  A    between atoms: O_1  and  C_12 
REMARK    2  A    between atoms: O_2  and  C_23 
REMARK    3  A    between atoms: O_2  and  C_37 
REMARK    4  A    between atoms: O_3  and  C_35 
REMARK    5  A    between atoms: O_6  and  C_43 
REMARK    6  A    between atoms: C_28  and  C_35 
REMARK    7  A    between atoms: C_37  and  C_38 
ROOT
HETATM    1  O   UNK     0       0.803  -2.265 -11.820  0.00  0.00    -0.395 OA
HETATM    2  H   UNK     0       0.659  -3.226 -11.792  0.00  0.00     0.210 HD
ENDROOT
BRANCH   1   3
HETATM    3  C   UNK     0      -0.201  -1.632 -11.031  0.00  0.00     0.128 C 
HETATM    4  C   UNK     0       0.285  -0.238 -10.513  0.00  0.00    -0.002 C 
HETATM    5  C   UNK     0      -0.763   0.313  -9.464  0.00  0.00     0.009 C 
HETATM    6  C   UNK     0       0.407   0.875 -11.733  0.00  0.00    -0.010 C 
HETATM    7  C   UNK     0       1.682  -0.421  -9.840  0.00  0.00     0.019 C 
HETATM    8  C   UNK     0      -1.338  -0.694  -8.366  0.00  0.00    -0.035 C 
HETATM    9  C   UNK     0      -0.289   1.660  -8.877  0.00  0.00     0.033 C 
HETATM   10  C   UNK     0      -1.771  -2.016  -9.081  0.00  0.00     0.007 C 
HETATM   11  C   UNK     0      -2.612  -0.034  -7.728  0.00  0.00     0.012 C 
HETATM   12  C   UNK     0      -0.337  -0.967  -7.215  0.00  0.00     0.016 C 
HETATM   13  C   UNK     0      -0.623  -2.601  -9.923  0.00  0.00     0.038 C 
HETATM   14  C   UNK     0      -2.512  -3.080  -8.178  0.00  0.00    -0.016 C 
HETATM   15  C   UNK     0      -3.290  -2.384  -7.019  0.00  0.00     0.140 C 
HETATM   16  C   UNK     0      -1.564  -4.131  -7.558  0.00  0.00     0.018 C 
HETATM   17  C   UNK     0      -3.497  -3.869  -9.085  0.00  0.00     0.018 C 
HETATM   18  C   UNK     0      -3.763  -0.990  -7.407  0.00  0.00     0.034 C 
HETATM   19  C   UNK     0       0.330   2.589  -9.874  0.00  0.00    -0.022 C 
HETATM   20  C   UNK     0       0.646   2.291 -11.149  0.00  0.00    -0.069 C 
HETATM   21  C   UNK     0       1.281   3.402 -12.013  0.00  0.00     0.037 C 
HETATM   22  C   UNK     0       2.473   2.867 -12.855  0.00  0.00    -0.036 C 
HETATM   23  C   UNK     0       0.225   4.189 -12.845  0.00  0.00     0.096 C 
HETATM   24  C   UNK     0       2.020   1.622 -13.649  0.00  0.00     0.011 C 
HETATM   25  C   UNK     0       3.007   3.953 -13.821  0.00  0.00     0.010 C 
HETATM   26  C   UNK     0       3.660   2.498 -11.927  0.00  0.00     0.016 C 
HETATM   27  C   UNK     0       1.532   0.486 -12.744  0.00  0.00     0.015 C 
HETATM   28  C   UNK     0       1.930   4.632 -14.653  0.00  0.00     0.006 C 
HETATM   29  C   UNK     0       0.857   5.257 -13.761  0.00  0.00    -0.004 C 
HETATM   30  C   UNK     0      -0.193   5.946 -14.644  0.00  0.00     0.011 C 
HETATM   31  C   UNK     0      -0.915   0.948 -12.557  0.00  0.00     0.021 C 
BRANCH  15  32
HETATM   32  O   UNK     0      -4.411  -3.167  -6.611  0.00  0.00    -0.311 OA
BRANCH  32  33
HETATM   33  C   UNK     0      -4.490  -3.458  -5.274  0.00  0.00     0.293 C 
HETATM   34  O   UNK     0      -3.595  -4.010  -4.642  0.00  0.00    -0.259 OA
BRANCH  33  35
HETATM   35  C   UNK     0      -5.757  -3.044  -4.666  0.00  0.00     0.039 A 
HETATM   36  C   UNK     0      -6.660  -2.291  -5.407  0.00  0.00     0.020 A 
HETATM   37  C   UNK     0      -7.867  -1.896  -4.830  0.00  0.00     0.037 A 
HETATM   38  C   UNK     0      -8.161  -2.257  -3.515  0.00  0.00     0.065 A 
HETATM   39  C   UNK     0      -7.249  -3.012  -2.778  0.00  0.00     0.037 A 
HETATM   40  C   UNK     0      -6.042  -3.407  -3.356  0.00  0.00     0.020 A 
BRANCH  38  41
HETATM   41  O   UNK     0      -9.339  -1.874  -2.951  0.00  0.00    -0.361 OA
HETATM   42  H   UNK     0      -9.508  -0.943  -3.178  0.00  0.00     0.217 HD
ENDBRANCH  38  41
ENDBRANCH  33  35
ENDBRANCH  32  33
ENDBRANCH  15  32
BRANCH  23  43
HETATM   43  C   UNK     0      -0.738   4.869 -11.908  0.00  0.00     0.144 C 
HETATM   44  O   UNK     0      -0.442   5.750 -11.115  0.00  0.00    -0.650 OA
BRANCH  43  45
HETATM   45  O   UNK     0      -1.988   4.368 -12.059  0.00  0.00    -0.776 OA
HETATM   46  H   UNK     0      -2.029   3.413 -11.842  0.00  0.00     0.167 HD
ENDBRANCH  43  45
ENDBRANCH  23  43
ENDBRANCH   1   3
TORSDOF 7
ENDMDL
MODEL 8
REMARK VINA RESULT:      -6.2      3.216     10.885
REMARK  7 active torsions:
REMARK  status: ('A' for Active; 'I' for Inactive)
REMARK    1  A    between atoms: O_1  and  C_12 
REMARK    2  A    between atoms: O_2  and  C_23 
REMARK    3  A    between atoms: O_2  and  C_37 
REMARK    4  A    between atoms: O_3  and  C_35 
REMARK    5  A    between atoms: O_6  and  C_43 
REMARK    6  A    between atoms: C_28  and  C_35 
REMARK    7  A    between atoms: C_37  and  C_38 
ROOT
HETATM    1  O   UNK     0      -4.011  -5.201  -2.884  0.00  0.00    -0.395 OA
HETATM    2  H   UNK     0      -4.536  -5.900  -3.308  0.00  0.00     0.210 HD
ENDROOT
BRANCH   1   3
HETATM    3  C   UNK     0      -4.233  -3.978  -3.583  0.00  0.00     0.128 C 
HETATM    4  C   UNK     0      -5.648  -3.960  -4.250  0.00  0.00    -0.002 C 
HETATM    5  C   UNK     0      -5.752  -2.696  -5.196  0.00  0.00     0.009 C 
HETATM    6  C   UNK     0      -6.865  -3.852  -3.133  0.00  0.00    -0.010 C 
HETATM    7  C   UNK     0      -5.821  -5.272  -5.077  0.00  0.00     0.019 C 
HETATM    8  C   UNK     0      -4.513  -2.354  -6.144  0.00  0.00    -0.035 C 
HETATM    9  C   UNK     0      -7.112  -2.673  -5.926  0.00  0.00     0.033 C 
HETATM   10  C   UNK     0      -3.202  -2.421  -5.293  0.00  0.00     0.007 C 
HETATM   11  C   UNK     0      -4.695  -0.882  -6.662  0.00  0.00     0.012 C 
HETATM   12  C   UNK     0      -4.435  -3.272  -7.389  0.00  0.00     0.016 C 
HETATM   13  C   UNK     0      -3.074  -3.769  -4.563  0.00  0.00     0.038 C 
HETATM   14  C   UNK     0      -1.880  -1.957  -6.024  0.00  0.00    -0.016 C 
HETATM   15  C   UNK     0      -2.191  -0.895  -7.121  0.00  0.00     0.140 C 
HETATM   16  C   UNK     0      -1.101  -3.118  -6.685  0.00  0.00     0.018 C 
HETATM   17  C   UNK     0      -0.929  -1.356  -4.950  0.00  0.00     0.018 C 
HETATM   18  C   UNK     0      -3.412  -0.055  -6.772  0.00  0.00     0.034 C 
HETATM   19  C   UNK     0      -8.279  -3.070  -5.078  0.00  0.00    -0.022 C 
HETATM   20  C   UNK     0      -8.221  -3.586  -3.835  0.00  0.00    -0.069 C 
HETATM   21  C   UNK     0      -9.551  -3.929  -3.134  0.00  0.00     0.037 C 
HETATM   22  C   UNK     0      -9.484  -5.305  -2.412  0.00  0.00    -0.036 C 
HETATM   23  C   UNK     0     -10.069  -2.769  -2.231  0.00  0.00     0.096 C 
HETATM   24  C   UNK     0      -8.249  -5.336  -1.485  0.00  0.00     0.011 C 
HETATM   25  C   UNK     0     -10.772  -5.570  -1.594  0.00  0.00     0.010 C 
HETATM   26  C   UNK     0      -9.394  -6.451  -3.452  0.00  0.00     0.016 C 
HETATM   27  C   UNK     0      -6.934  -5.135  -2.245  0.00  0.00     0.015 C 
HETATM   28  C   UNK     0     -11.181  -4.424  -0.683  0.00  0.00     0.006 C 
HETATM   29  C   UNK     0     -11.364  -3.128  -1.474  0.00  0.00    -0.004 C 
HETATM   30  C   UNK     0     -11.795  -2.009  -0.517  0.00  0.00     0.011 C 
HETATM   31  C   UNK     0      -6.624  -2.658  -2.157  0.00  0.00     0.021 C 
BRANCH  15  32
HETATM   32  O   UNK     0      -1.072  -0.034  -7.334  0.00  0.00    -0.311 OA
BRANCH  32  33
HETATM   33  C   UNK     0      -0.864   0.379  -8.624  0.00  0.00     0.293 C 
HETATM   34  O   UNK     0      -0.481   1.503  -8.928  0.00  0.00    -0.259 OA
BRANCH  33  35
HETATM   35  C   UNK     0      -1.146  -0.663  -9.615  0.00  0.00     0.039 A 
HETATM   36  C   UNK     0      -0.178  -1.617  -9.904  0.00  0.00     0.020 A 
HETATM   37  C   UNK     0      -0.446  -2.609 -10.847  0.00  0.00     0.037 A 
HETATM   38  C   UNK     0      -1.681  -2.640 -11.495  0.00  0.00     0.065 A 
HETATM   39  C   UNK     0      -2.647  -1.679 -11.199  0.00  0.00     0.037 A 
HETATM   40  C   UNK     0      -2.379  -0.686 -10.256  0.00  0.00     0.020 A 
BRANCH  38  41
HETATM   41  O   UNK     0      -1.944  -3.608 -12.413  0.00  0.00    -0.361 OA
HETATM   42  H   UNK     0      -1.155  -3.740 -12.967  0.00  0.00     0.217 HD
ENDBRANCH  38  41
ENDBRANCH  33  35
ENDBRANCH  32  33
ENDBRANCH  15  32
BRANCH  23  43
HETATM   43  C   UNK     0     -10.332  -1.557  -3.085  0.00  0.00     0.144 C 
HETATM   44  O   UNK     0      -9.735  -0.494  -2.999  0.00  0.00    -0.650 OA
BRANCH  43  45
HETATM   45  O   UNK     0     -11.331  -1.801  -3.969  0.00  0.00    -0.776 OA
HETATM   46  H   UNK     0     -12.214  -1.756  -3.545  0.00  0.00     0.167 HD
ENDBRANCH  43  45
ENDBRANCH  23  43
ENDBRANCH   1   3
TORSDOF 7
ENDMDL
MODEL 9
REMARK VINA RESULT:      -6.2      5.736      8.613
REMARK  7 active torsions:
REMARK  status: ('A' for Active; 'I' for Inactive)
REMARK    1  A    between atoms: O_1  and  C_12 
REMARK    2  A    between atoms: O_2  and  C_23 
REMARK    3  A    between atoms: O_2  and  C_37 
REMARK    4  A    between atoms: O_3  and  C_35 
REMARK    5  A    between atoms: O_6  and  C_43 
REMARK    6  A    between atoms: C_28  and  C_35 
REMARK    7  A    between atoms: C_37  and  C_38 
ROOT
HETATM    1  O   UNK     0      -6.079   2.389  -7.798  0.00  0.00    -0.395 OA
HETATM    2  H   UNK     0      -5.118   2.406  -7.942  0.00  0.00     0.210 HD
ENDROOT
BRANCH   1   3
HETATM    3  C   UNK     0      -6.610   1.213  -8.403  0.00  0.00     0.128 C 
HETATM    4  C   UNK     0      -5.483   0.379  -9.098  0.00  0.00    -0.002 C 
HETATM    5  C   UNK     0      -6.151  -0.779  -9.944  0.00  0.00     0.009 C 
HETATM    6  C   UNK     0      -4.460  -0.324  -8.004  0.00  0.00    -0.010 C 
HETATM    7  C   UNK     0      -4.668   1.331 -10.030  0.00  0.00     0.019 C 
HETATM    8  C   UNK     0      -7.430  -0.428 -10.834  0.00  0.00    -0.035 C 
HETATM    9  C   UNK     0      -5.076  -1.590 -10.700  0.00  0.00     0.033 C 
HETATM   10  C   UNK     0      -8.432   0.398  -9.962  0.00  0.00     0.007 C 
HETATM   11  C   UNK     0      -8.120  -1.780 -11.239  0.00  0.00     0.012 C 
HETATM   12  C   UNK     0      -7.067   0.312 -12.145  0.00  0.00     0.016 C 
HETATM   13  C   UNK     0      -7.751   1.627  -9.337  0.00  0.00     0.038 C 
HETATM   14  C   UNK     0      -9.833   0.705 -10.624  0.00  0.00    -0.016 C 
HETATM   15  C   UNK     0     -10.227  -0.409 -11.641  0.00  0.00     0.140 C 
HETATM   16  C   UNK     0      -9.884   2.066 -11.356  0.00  0.00     0.018 C 
HETATM   17  C   UNK     0     -10.888   0.788  -9.485  0.00  0.00     0.018 C 
HETATM   18  C   UNK     0      -9.650  -1.764 -11.255  0.00  0.00     0.034 C 
HETATM   19  C   UNK     0      -3.833  -1.860  -9.913  0.00  0.00    -0.022 C 
HETATM   20  C   UNK     0      -3.521  -1.333  -8.713  0.00  0.00    -0.069 C 
HETATM   21  C   UNK     0      -2.180  -1.746  -8.071  0.00  0.00     0.037 C 
HETATM   22  C   UNK     0      -1.434  -0.527  -7.458  0.00  0.00    -0.036 C 
HETATM   23  C   UNK     0      -2.331  -2.950  -7.092  0.00  0.00     0.096 C 
HETATM   24  C   UNK     0      -2.388   0.232  -6.509  0.00  0.00     0.011 C 
HETATM   25  C   UNK     0      -0.165  -0.976  -6.693  0.00  0.00     0.010 C 
HETATM   26  C   UNK     0      -0.943   0.420  -8.583  0.00  0.00     0.016 C 
HETATM   27  C   UNK     0      -3.641   0.751  -7.221  0.00  0.00     0.015 C 
HETATM   28  C   UNK     0      -0.398  -2.107  -5.704  0.00  0.00     0.006 C 
HETATM   29  C   UNK     0      -1.008  -3.327  -6.395  0.00  0.00    -0.004 C 
HETATM   30  C   UNK     0      -1.205  -4.445  -5.363  0.00  0.00     0.011 C 
HETATM   31  C   UNK     0      -5.256  -1.132  -6.932  0.00  0.00     0.021 C 
BRANCH  15  32
HETATM   32  O   UNK     0     -11.646  -0.517 -11.760  0.00  0.00    -0.311 OA
BRANCH  32  33
HETATM   33  C   UNK     0     -12.107  -1.455 -12.646  0.00  0.00     0.293 C 
HETATM   34  O   UNK     0     -11.938  -1.391 -13.859  0.00  0.00    -0.259 OA
BRANCH  33  35
HETATM   35  C   UNK     0     -12.830  -2.554 -11.999  0.00  0.00     0.039 A 
HETATM   36  C   UNK     0     -13.541  -2.313 -10.830  0.00  0.00     0.020 A 
HETATM   37  C   UNK     0     -14.230  -3.358 -10.214  0.00  0.00     0.037 A 
HETATM   38  C   UNK     0     -14.201  -4.637 -10.771  0.00  0.00     0.065 A 
HETATM   39  C   UNK     0     -13.484  -4.869 -11.944  0.00  0.00     0.037 A 
HETATM   40  C   UNK     0     -12.795  -3.824 -12.561  0.00  0.00     0.020 A 
BRANCH  38  41
HETATM   41  O   UNK     0     -14.873  -5.656 -10.171  0.00  0.00    -0.361 OA
HETATM   42  H   UNK     0     -14.351  -6.472 -10.258  0.00  0.00     0.217 HD
ENDBRANCH  38  41
ENDBRANCH  33  35
ENDBRANCH  32  33
ENDBRANCH  15  32
BRANCH  23  43
HETATM   43  C   UNK     0      -2.832  -4.148  -7.854  0.00  0.00     0.144 C 
HETATM   44  O   UNK     0      -2.249  -4.681  -8.786  0.00  0.00    -0.650 OA
BRANCH  43  45
HETATM   45  O   UNK     0      -4.028  -4.560  -7.367  0.00  0.00    -0.776 OA
HETATM   46  H   UNK     0      -4.139  -4.326  -6.422  0.00  0.00     0.167 HD
ENDBRANCH  43  45
ENDBRANCH  23  43
ENDBRANCH   1   3
TORSDOF 7
ENDMDL
