REMARK VINA RESULT:      -6.9      0.000      0.000
REMARK  7 active torsions:
REMARK  status: ('A' for Active; 'I' for Inactive)
REMARK    1  A    between atoms: O_1  and  C_12 
REMARK    2  A    between atoms: O_2  and  C_23 
REMARK    3  A    between atoms: O_2  and  C_37 
REMARK    4  A    between atoms: O_3  and  C_35 
REMARK    5  A    between atoms: O_6  and  C_43 
REMARK    6  A    between atoms: C_28  and  C_35 
REMARK    7  A    between atoms: C_37  and  C_38 
ROOT
HETATM    1  O   UNK     0      -0.000  -2.499 -10.787  0.00  0.00    -0.395 OA
HETATM    2  H   UNK     0      -0.069  -3.463 -10.883  0.00  0.00     0.210 HD
ENDROOT
BRANCH   1   3
HETATM    3  C   UNK     0      -1.154  -2.027 -10.096  0.00  0.00     0.128 C 
HETATM    4  C   UNK     0      -1.064  -0.487  -9.834  0.00  0.00    -0.002 C 
HETATM    5  C   UNK     0      -2.245  -0.062  -8.870  0.00  0.00     0.009 C 
HETATM    6  C   UNK     0      -1.210   0.394 -11.227  0.00  0.00    -0.010 C 
HETATM    7  C   UNK     0       0.315  -0.180  -9.170  0.00  0.00     0.019 C 
HETATM    8  C   UNK     0      -2.561  -0.983  -7.605  0.00  0.00    -0.035 C 
HETATM    9  C   UNK     0      -2.157   1.442  -8.532  0.00  0.00     0.033 C 
HETATM   10  C   UNK     0      -2.614  -2.474  -8.075  0.00  0.00     0.007 C 
HETATM   11  C   UNK     0      -3.979  -0.583  -7.061  0.00  0.00     0.012 C 
HETATM   12  C   UNK     0      -1.553  -0.783  -6.446  0.00  0.00     0.016 C 
HETATM   13  C   UNK     0      -1.333  -2.870  -8.830  0.00  0.00     0.038 C 
HETATM   14  C   UNK     0      -3.071  -3.526  -6.987  0.00  0.00    -0.016 C 
HETATM   15  C   UNK     0      -4.032  -2.872  -5.948  0.00  0.00     0.140 C 
HETATM   16  C   UNK     0      -1.895  -4.169  -6.219  0.00  0.00     0.018 C 
HETATM   17  C   UNK     0      -3.792  -4.689  -7.726  0.00  0.00     0.018 C 
HETATM   18  C   UNK     0      -4.846  -1.740  -6.557  0.00  0.00     0.034 C 
HETATM   19  C   UNK     0      -1.781   2.317  -9.686  0.00  0.00    -0.022 C 
HETATM   20  C   UNK     0      -1.366   1.901 -10.899  0.00  0.00    -0.069 C 
HETATM   21  C   UNK     0      -1.025   2.976 -11.952  0.00  0.00     0.037 C 
HETATM   22  C   UNK     0       0.286   2.639 -12.717  0.00  0.00    -0.036 C 
HETATM   23  C   UNK     0      -2.231   3.304 -12.883  0.00  0.00     0.096 C 
HETATM   24  C   UNK     0       0.195   1.202 -13.278  0.00  0.00     0.011 C 
HETATM   25  C   UNK     0       0.538   3.646 -13.865  0.00  0.00     0.010 C 
HETATM   26  C   UNK     0       1.505   2.759 -11.766  0.00  0.00     0.016 C 
HETATM   27  C   UNK     0       0.001   0.149 -12.181  0.00  0.00     0.015 C 
HETATM   28  C   UNK     0      -0.659   3.866 -14.777  0.00  0.00     0.006 C 
HETATM   29  C   UNK     0      -1.880   4.329 -13.981  0.00  0.00    -0.004 C 
HETATM   30  C   UNK     0      -3.053   4.557 -14.945  0.00  0.00     0.011 C 
HETATM   31  C   UNK     0      -2.485  -0.025 -12.022  0.00  0.00     0.021 C 
BRANCH  15  32
HETATM   32  O   UNK     0      -4.918  -3.842  -5.388  0.00  0.00    -0.311 OA
BRANCH  32  33
HETATM   33  C   UNK     0      -4.839  -4.018  -4.031  0.00  0.00     0.293 C 
HETATM   34  O   UNK     0      -3.799  -4.273  -3.434  0.00  0.00    -0.259 OA
BRANCH  33  35
HETATM   35  C   UNK     0      -6.131  -3.873  -3.354  0.00  0.00     0.039 A 
HETATM   36  C   UNK     0      -6.403  -4.632  -2.222  0.00  0.00     0.020 A 
HETATM   37  C   UNK     0      -7.632  -4.493  -1.577  0.00  0.00     0.037 A 
HETATM   38  C   UNK     0      -8.580  -3.597  -2.070  0.00  0.00     0.065 A 
HETATM   39  C   UNK     0      -8.300  -2.840  -3.207  0.00  0.00     0.037 A 
HETATM   40  C   UNK     0      -7.070  -2.978  -3.852  0.00  0.00     0.020 A 
BRANCH  38  41
HETATM   41  O   UNK     0      -9.779  -3.460  -1.440  0.00  0.00    -0.361 OA
HETATM   42  H   UNK     0      -9.959  -2.514  -1.307  0.00  0.00     0.217 HD
ENDBRANCH  38  41
ENDBRANCH  33  35
ENDBRANCH  32  33
ENDBRANCH  15  32
BRANCH  23  43
HETATM   43  C   UNK     0      -3.361   3.856 -12.055  0.00  0.00     0.144 C 
HETATM   44  O   UNK     0      -4.443   3.311 -11.892  0.00  0.00    -0.650 OA
BRANCH  43  45
HETATM   45  O   UNK     0      -3.019   5.049 -11.511  0.00  0.00    -0.776 OA
HETATM   46  H   UNK     0      -2.266   5.464 -11.982  0.00  0.00     0.167 HD
ENDBRANCH  43  45
ENDBRANCH  23  43
ENDBRANCH   1   3
TORSDOF 7
