MODEL 1
REMARK VINA RESULT:      -7.0      0.000      0.000
REMARK  6 active torsions:
REMARK  status: ('A' for Active; 'I' for Inactive)
REMARK    1  A    between atoms: O_3  and  C_14 
REMARK    2  A    between atoms: O_4  and  C_15 
REMARK    3  A    between atoms: O_5  and  C_20 
REMARK    4  A    between atoms: C_6  and  C_12 
REMARK    5  A    between atoms: C_10  and  C_13 
REMARK    6  A    between atoms: C_13  and  C_17 
ROOT
HETATM    1  O   UNK     0      -0.318   1.059 -11.909  0.00  0.00    -0.339 OA
HETATM    2  O   UNK     0      -1.692  -1.468 -14.835  0.00  0.00    -0.292 OA
HETATM    3  C   UNK     0      -0.930  -0.196 -11.568  0.00  0.00     0.169 C 
HETATM    4  C   UNK     0      -0.697  -1.234 -12.664  0.00  0.00     0.121 C 
HETATM    5  C   UNK     0      -0.746   1.551 -13.114  0.00  0.00     0.095 A 
HETATM    6  C   UNK     0      -1.244   0.745 -14.143  0.00  0.00     0.077 A 
HETATM    7  C   UNK     0      -0.639   2.929 -13.304  0.00  0.00     0.014 A 
HETATM    8  C   UNK     0      -1.274  -0.721 -13.958  0.00  0.00     0.167 C 
HETATM    9  C   UNK     0      -1.666   1.316 -15.345  0.00  0.00     0.085 A 
HETATM   10  C   UNK     0      -1.059   3.502 -14.504  0.00  0.00     0.077 A 
HETATM   11  C   UNK     0      -1.576   2.697 -15.522  0.00  0.00     0.074 A 
ENDROOT
BRANCH   3  12
HETATM   12  C   UNK     0      -0.360  -0.662 -10.244  0.00  0.00    -0.029 A 
HETATM   13  C   UNK     0      -0.983  -0.298  -9.051  0.00  0.00     0.010 A 
HETATM   14  C   UNK     0      -0.459  -0.727  -7.832  0.00  0.00     0.001 A 
HETATM   15  C   UNK     0       0.687  -1.521  -7.806  0.00  0.00     0.000 A 
HETATM   16  C   UNK     0       1.311  -1.885  -9.000  0.00  0.00     0.001 A 
HETATM   17  C   UNK     0       0.787  -1.455 -10.219  0.00  0.00     0.010 A 
ENDBRANCH   3  12
BRANCH   7  18
HETATM   18  C   UNK     0      -0.088   3.801 -12.221  0.00  0.00     0.085 C 
BRANCH  18  19
HETATM   19  C   UNK     0      -1.121   4.241 -11.206  0.00  0.00    -0.021 A 
HETATM   20  C   UNK     0      -1.778   5.449 -11.366  0.00  0.00     0.072 A 
HETATM   21  C   UNK     0      -2.727   5.840 -10.420  0.00  0.00     0.037 A 
HETATM   22  C   UNK     0      -3.004   5.017  -9.329  0.00  0.00     0.003 A 
HETATM   23  C   UNK     0      -2.332   3.803  -9.183  0.00  0.00     0.001 A 
HETATM   24  C   UNK     0      -1.383   3.413 -10.127  0.00  0.00     0.010 A 
BRANCH  20  25
HETATM   25  O   UNK     0      -1.520   6.265 -12.426  0.00  0.00    -0.360 OA
HETATM   26  H   UNK     0      -1.622   7.191 -12.146  0.00  0.00     0.217 HD
ENDBRANCH  20  25
ENDBRANCH  18  19
ENDBRANCH   7  18
BRANCH   9  27
HETATM   27  O   UNK     0      -2.163   0.577 -16.377  0.00  0.00    -0.360 OA
HETATM   28  H   UNK     0      -1.447   0.052 -16.775  0.00  0.00     0.217 HD
ENDBRANCH   9  27
BRANCH  10  29
HETATM   29  O   UNK     0      -0.972   4.847 -14.704  0.00  0.00    -0.360 OA
HETATM   30  H   UNK     0      -1.632   5.115 -15.366  0.00  0.00     0.217 HD
ENDBRANCH  10  29
TORSDOF 6
ENDMDL
MODEL 2
REMARK VINA RESULT:      -6.9      1.959      5.535
REMARK  6 active torsions:
REMARK  status: ('A' for Active; 'I' for Inactive)
REMARK    1  A    between atoms: O_3  and  C_14 
REMARK    2  A    between atoms: O_4  and  C_15 
REMARK    3  A    between atoms: O_5  and  C_20 
REMARK    4  A    between atoms: C_6  and  C_12 
REMARK    5  A    between atoms: C_10  and  C_13 
REMARK    6  A    between atoms: C_13  and  C_17 
ROOT
HETATM    1  O   UNK     0      -1.027   1.855 -12.060  0.00  0.00    -0.339 OA
HETATM    2  O   UNK     0      -1.606   5.209 -14.352  0.00  0.00    -0.292 OA
HETATM    3  C   UNK     0      -1.655   1.764 -13.350  0.00  0.00     0.169 C 
HETATM    4  C   UNK     0      -1.142   2.856 -14.287  0.00  0.00     0.121 C 
HETATM    5  C   UNK     0      -1.186   3.084 -11.475  0.00  0.00     0.095 A 
HETATM    6  C   UNK     0      -1.408   4.260 -12.199  0.00  0.00     0.077 A 
HETATM    7  C   UNK     0      -1.089   3.134 -10.084  0.00  0.00     0.014 A 
HETATM    8  C   UNK     0      -1.427   4.203 -13.675  0.00  0.00     0.167 C 
HETATM    9  C   UNK     0      -1.565   5.479 -11.534  0.00  0.00     0.085 A 
HETATM   10  C   UNK     0      -1.244   4.351  -9.418  0.00  0.00     0.077 A 
HETATM   11  C   UNK     0      -1.487   5.520 -10.142  0.00  0.00     0.074 A 
ENDROOT
BRANCH   3  12
HETATM   12  C   UNK     0      -1.386   0.386 -13.917  0.00  0.00    -0.029 A 
HETATM   13  C   UNK     0      -0.320  -0.371 -13.431  0.00  0.00     0.010 A 
HETATM   14  C   UNK     0      -0.072  -1.640 -13.953  0.00  0.00     0.001 A 
HETATM   15  C   UNK     0      -0.889  -2.153 -14.960  0.00  0.00     0.000 A 
HETATM   16  C   UNK     0      -1.956  -1.395 -15.445  0.00  0.00     0.001 A 
HETATM   17  C   UNK     0      -2.203  -0.125 -14.924  0.00  0.00     0.010 A 
ENDBRANCH   3  12
BRANCH   7  18
HETATM   18  C   UNK     0      -0.831   1.889  -9.298  0.00  0.00     0.085 C 
BRANCH  18  19
HETATM   19  C   UNK     0       0.585   1.370  -9.421  0.00  0.00    -0.021 A 
HETATM   20  C   UNK     0       0.812   0.031  -9.692  0.00  0.00     0.072 A 
HETATM   21  C   UNK     0       2.124  -0.430  -9.802  0.00  0.00     0.037 A 
HETATM   22  C   UNK     0       3.190   0.454  -9.640  0.00  0.00     0.003 A 
HETATM   23  C   UNK     0       2.944   1.800  -9.367  0.00  0.00     0.001 A 
HETATM   24  C   UNK     0       1.633   2.261  -9.256  0.00  0.00     0.010 A 
BRANCH  20  25
HETATM   25  O   UNK     0      -0.218  -0.846  -9.854  0.00  0.00    -0.360 OA
HETATM   26  H   UNK     0      -0.062  -1.375 -10.655  0.00  0.00     0.217 HD
ENDBRANCH  20  25
ENDBRANCH  18  19
ENDBRANCH   7  18
BRANCH   9  27
HETATM   27  O   UNK     0      -1.787   6.652 -12.191  0.00  0.00    -0.360 OA
HETATM   28  H   UNK     0      -2.677   6.642 -12.582  0.00  0.00     0.217 HD
ENDBRANCH   9  27
BRANCH  10  29
HETATM   29  O   UNK     0      -1.162   4.418  -8.059  0.00  0.00    -0.360 OA
HETATM   30  H   UNK     0      -0.355   4.901  -7.812  0.00  0.00     0.217 HD
ENDBRANCH  10  29
TORSDOF 6
ENDMDL
MODEL 3
REMARK VINA RESULT:      -6.6      1.518      1.838
REMARK  6 active torsions:
REMARK  status: ('A' for Active; 'I' for Inactive)
REMARK    1  A    between atoms: O_3  and  C_14 
REMARK    2  A    between atoms: O_4  and  C_15 
REMARK    3  A    between atoms: O_5  and  C_20 
REMARK    4  A    between atoms: C_6  and  C_12 
REMARK    5  A    between atoms: C_10  and  C_13 
REMARK    6  A    between atoms: C_13  and  C_17 
ROOT
HETATM    1  O   UNK     0       0.478   0.116 -12.152  0.00  0.00    -0.339 OA
HETATM    2  O   UNK     0      -1.289  -2.997 -14.157  0.00  0.00    -0.292 OA
HETATM    3  C   UNK     0       0.369  -1.182 -11.545  0.00  0.00     0.169 C 
HETATM    4  C   UNK     0       0.392  -2.285 -12.601  0.00  0.00     0.121 C 
HETATM    5  C   UNK     0      -0.493   0.349 -13.091  0.00  0.00     0.095 A 
HETATM    6  C   UNK     0      -1.148  -0.669 -13.792  0.00  0.00     0.077 A 
HETATM    7  C   UNK     0      -0.802   1.683 -13.356  0.00  0.00     0.014 A 
HETATM    8  C   UNK     0      -0.752  -2.073 -13.558  0.00  0.00     0.167 C 
HETATM    9  C   UNK     0      -2.132  -0.357 -14.732  0.00  0.00     0.085 A 
HETATM   10  C   UNK     0      -1.784   1.997 -14.296  0.00  0.00     0.077 A 
HETATM   11  C   UNK     0      -2.452   0.979 -14.979  0.00  0.00     0.074 A 
ENDROOT
BRANCH   3  12
HETATM   12  C   UNK     0       1.507  -1.346 -10.559  0.00  0.00    -0.029 A 
HETATM   13  C   UNK     0       2.349  -0.269 -10.282  0.00  0.00     0.010 A 
HETATM   14  C   UNK     0       3.397  -0.419  -9.374  0.00  0.00     0.001 A 
HETATM   15  C   UNK     0       3.603  -1.646  -8.743  0.00  0.00     0.000 A 
HETATM   16  C   UNK     0       2.760  -2.723  -9.021  0.00  0.00     0.001 A 
HETATM   17  C   UNK     0       1.713  -2.573  -9.929  0.00  0.00     0.010 A 
ENDBRANCH   3  12
BRANCH   7  18
HETATM   18  C   UNK     0      -0.096   2.783 -12.629  0.00  0.00     0.085 C 
BRANCH  18  19
HETATM   19  C   UNK     0      -0.891   3.367 -11.482  0.00  0.00    -0.021 A 
HETATM   20  C   UNK     0      -1.435   4.635 -11.590  0.00  0.00     0.072 A 
HETATM   21  C   UNK     0      -2.164   5.158 -10.522  0.00  0.00     0.037 A 
HETATM   22  C   UNK     0      -2.339   4.405  -9.362  0.00  0.00     0.003 A 
HETATM   23  C   UNK     0      -1.784   3.129  -9.269  0.00  0.00     0.001 A 
HETATM   24  C   UNK     0      -1.054   2.606 -10.336  0.00  0.00     0.010 A 
BRANCH  20  25
HETATM   25  O   UNK     0      -1.273   5.385 -12.716  0.00  0.00    -0.360 OA
HETATM   26  H   UNK     0      -0.734   4.887 -13.354  0.00  0.00     0.217 HD
ENDBRANCH  20  25
ENDBRANCH  18  19
ENDBRANCH   7  18
BRANCH   9  27
HETATM   27  O   UNK     0      -2.803  -1.310 -15.439  0.00  0.00    -0.360 OA
HETATM   28  H   UNK     0      -2.264  -1.590 -16.199  0.00  0.00     0.217 HD
ENDBRANCH   9  27
BRANCH  10  29
HETATM   29  O   UNK     0      -2.107   3.295 -14.561  0.00  0.00    -0.360 OA
HETATM   30  H   UNK     0      -1.488   3.880 -14.093  0.00  0.00     0.217 HD
ENDBRANCH  10  29
TORSDOF 6
ENDMDL
MODEL 4
REMARK VINA RESULT:      -6.5      1.967      5.337
REMARK  6 active torsions:
REMARK  status: ('A' for Active; 'I' for Inactive)
REMARK    1  A    between atoms: O_3  and  C_14 
REMARK    2  A    between atoms: O_4  and  C_15 
REMARK    3  A    between atoms: O_5  and  C_20 
REMARK    4  A    between atoms: C_6  and  C_12 
REMARK    5  A    between atoms: C_10  and  C_13 
REMARK    6  A    between atoms: C_13  and  C_17 
ROOT
HETATM    1  O   UNK     0      -0.208   0.348 -13.093  0.00  0.00    -0.339 OA
HETATM    2  O   UNK     0      -2.631   3.271 -14.647  0.00  0.00    -0.292 OA
HETATM    3  C   UNK     0      -1.477   0.015 -13.681  0.00  0.00     0.169 C 
HETATM    4  C   UNK     0      -1.848   1.007 -14.781  0.00  0.00     0.121 C 
HETATM    5  C   UNK     0      -0.168   1.626 -12.600  0.00  0.00     0.095 A 
HETATM    6  C   UNK     0      -0.982   2.661 -13.072  0.00  0.00     0.077 A 
HETATM    7  C   UNK     0       0.765   1.882 -11.594  0.00  0.00     0.014 A 
HETATM    8  C   UNK     0      -1.907   2.393 -14.193  0.00  0.00     0.167 C 
HETATM    9  C   UNK     0      -0.890   3.940 -12.519  0.00  0.00     0.085 A 
HETATM   10  C   UNK     0       0.860   3.159 -11.041  0.00  0.00     0.077 A 
HETATM   11  C   UNK     0       0.031   4.185 -11.499  0.00  0.00     0.074 A 
ENDROOT
BRANCH   3  12
HETATM   12  C   UNK     0      -1.397  -1.397 -14.223  0.00  0.00    -0.029 A 
HETATM   13  C   UNK     0      -1.744  -1.654 -15.549  0.00  0.00     0.010 A 
HETATM   14  C   UNK     0      -1.670  -2.955 -16.048  0.00  0.00     0.001 A 
HETATM   15  C   UNK     0      -1.249  -3.997 -15.223  0.00  0.00     0.000 A 
HETATM   16  C   UNK     0      -0.902  -3.738 -13.896  0.00  0.00     0.001 A 
HETATM   17  C   UNK     0      -0.976  -2.438 -13.396  0.00  0.00     0.010 A 
ENDBRANCH   3  12
BRANCH   7  18
HETATM   18  C   UNK     0       1.657   0.791 -11.094  0.00  0.00     0.085 C 
BRANCH  18  19
HETATM   19  C   UNK     0       1.080   0.015  -9.930  0.00  0.00    -0.021 A 
HETATM   20  C   UNK     0       1.731  -1.112  -9.457  0.00  0.00     0.072 A 
HETATM   21  C   UNK     0       1.185  -1.816  -8.384  0.00  0.00     0.037 A 
HETATM   22  C   UNK     0      -0.005  -1.382  -7.799  0.00  0.00     0.003 A 
HETATM   23  C   UNK     0      -0.648  -0.245  -8.288  0.00  0.00     0.001 A 
HETATM   24  C   UNK     0      -0.103   0.458  -9.361  0.00  0.00     0.010 A 
BRANCH  20  25
HETATM   25  O   UNK     0       2.893  -1.549 -10.017  0.00  0.00    -0.360 OA
HETATM   26  H   UNK     0       2.895  -2.522 -10.028  0.00  0.00     0.217 HD
ENDBRANCH  20  25
ENDBRANCH  18  19
ENDBRANCH   7  18
BRANCH   9  27
HETATM   27  O   UNK     0      -1.662   4.981 -12.939  0.00  0.00    -0.360 OA
HETATM   28  H   UNK     0      -1.256   5.392 -13.722  0.00  0.00     0.217 HD
ENDBRANCH   9  27
BRANCH  10  29
HETATM   29  O   UNK     0       1.758   3.426 -10.051  0.00  0.00    -0.360 OA
HETATM   30  H   UNK     0       2.652   3.204 -10.362  0.00  0.00     0.217 HD
ENDBRANCH  10  29
TORSDOF 6
ENDMDL
MODEL 5
REMARK VINA RESULT:      -6.5      1.377      4.662
REMARK  6 active torsions:
REMARK  status: ('A' for Active; 'I' for Inactive)
REMARK    1  A    between atoms: O_3  and  C_14 
REMARK    2  A    between atoms: O_4  and  C_15 
REMARK    3  A    between atoms: O_5  and  C_20 
REMARK    4  A    between atoms: C_6  and  C_12 
REMARK    5  A    between atoms: C_10  and  C_13 
REMARK    6  A    between atoms: C_13  and  C_17 
ROOT
HETATM    1  O   UNK     0      -0.229   1.567 -11.528  0.00  0.00    -0.339 OA
HETATM    2  O   UNK     0      -2.280   4.738  -9.924  0.00  0.00    -0.292 OA
HETATM    3  C   UNK     0      -0.134   1.870 -10.127  0.00  0.00     0.169 C 
HETATM    4  C   UNK     0      -1.420   2.519  -9.618  0.00  0.00     0.121 C 
HETATM    5  C   UNK     0      -0.531   2.664 -12.292  0.00  0.00     0.095 A 
HETATM    6  C   UNK     0      -1.208   3.785 -11.799  0.00  0.00     0.077 A 
HETATM    7  C   UNK     0      -0.153   2.618 -13.634  0.00  0.00     0.014 A 
HETATM    8  C   UNK     0      -1.673   3.784 -10.396  0.00  0.00     0.167 C 
HETATM    9  C   UNK     0      -1.478   4.870 -12.635  0.00  0.00     0.085 A 
HETATM   10  C   UNK     0      -0.423   3.701 -14.471  0.00  0.00     0.077 A 
HETATM   11  C   UNK     0      -1.080   4.827 -13.972  0.00  0.00     0.074 A 
ENDROOT
BRANCH   3  12
HETATM   12  C   UNK     0       0.163   0.587  -9.379  0.00  0.00    -0.029 A 
HETATM   13  C   UNK     0      -0.679   0.171  -8.348  0.00  0.00     0.010 A 
HETATM   14  C   UNK     0      -0.406  -1.011  -7.659  0.00  0.00     0.001 A 
HETATM   15  C   UNK     0       0.708  -1.776  -8.002  0.00  0.00     0.000 A 
HETATM   16  C   UNK     0       1.550  -1.360  -9.033  0.00  0.00     0.001 A 
HETATM   17  C   UNK     0       1.278  -0.177  -9.721  0.00  0.00     0.010 A 
ENDBRANCH   3  12
BRANCH   7  18
HETATM   18  C   UNK     0       0.553   1.418 -14.181  0.00  0.00     0.085 C 
BRANCH  18  19
HETATM   19  C   UNK     0      -0.331   0.197 -14.313  0.00  0.00    -0.021 A 
HETATM   20  C   UNK     0      -1.182   0.072 -15.398  0.00  0.00     0.072 A 
HETATM   21  C   UNK     0      -1.990  -1.060 -15.504  0.00  0.00     0.037 A 
HETATM   22  C   UNK     0      -1.936  -2.050 -14.524  0.00  0.00     0.003 A 
HETATM   23  C   UNK     0      -1.073  -1.908 -13.437  0.00  0.00     0.001 A 
HETATM   24  C   UNK     0      -0.265  -0.777 -13.330  0.00  0.00     0.010 A 
BRANCH  20  25
HETATM   25  O   UNK     0      -1.248   1.030 -16.365  0.00  0.00    -0.360 OA
HETATM   26  H   UNK     0      -0.359   1.168 -16.737  0.00  0.00     0.217 HD
ENDBRANCH  20  25
ENDBRANCH  18  19
ENDBRANCH   7  18
BRANCH   9  27
HETATM   27  O   UNK     0      -2.130   5.986 -12.204  0.00  0.00    -0.360 OA
HETATM   28  H   UNK     0      -2.173   5.983 -11.232  0.00  0.00     0.217 HD
ENDBRANCH   9  27
BRANCH  10  29
HETATM   29  O   UNK     0      -0.052   3.678 -15.783  0.00  0.00    -0.360 OA
HETATM   30  H   UNK     0      -0.811   3.399 -16.324  0.00  0.00     0.217 HD
ENDBRANCH  10  29
TORSDOF 6
ENDMDL
MODEL 6
REMARK VINA RESULT:      -6.4      1.876      4.961
REMARK  6 active torsions:
REMARK  status: ('A' for Active; 'I' for Inactive)
REMARK    1  A    between atoms: O_3  and  C_14 
REMARK    2  A    between atoms: O_4  and  C_15 
REMARK    3  A    between atoms: O_5  and  C_20 
REMARK    4  A    between atoms: C_6  and  C_12 
REMARK    5  A    between atoms: C_10  and  C_13 
REMARK    6  A    between atoms: C_13  and  C_17 
ROOT
HETATM    1  O   UNK     0      -0.895   0.781 -12.561  0.00  0.00    -0.339 OA
HETATM    2  O   UNK     0       0.682  -2.498 -10.665  0.00  0.00    -0.292 OA
HETATM    3  C   UNK     0      -0.749   0.759 -11.132  0.00  0.00     0.169 C 
HETATM    4  C   UNK     0       0.435  -0.112 -10.716  0.00  0.00     0.121 C 
HETATM    5  C   UNK     0      -1.023  -0.471 -13.105  0.00  0.00     0.095 A 
HETATM    6  C   UNK     0      -0.528  -1.629 -12.497  0.00  0.00     0.077 A 
HETATM    7  C   UNK     0      -1.663  -0.556 -14.341  0.00  0.00     0.014 A 
HETATM    8  C   UNK     0       0.220  -1.513 -11.228  0.00  0.00     0.167 C 
HETATM    9  C   UNK     0      -0.699  -2.874 -13.107  0.00  0.00     0.085 A 
HETATM   10  C   UNK     0      -1.834  -1.798 -14.953  0.00  0.00     0.077 A 
HETATM   11  C   UNK     0      -1.357  -2.956 -14.335  0.00  0.00     0.074 A 
ENDROOT
BRANCH   3  12
HETATM   12  C   UNK     0      -0.578   2.183 -10.646  0.00  0.00    -0.029 A 
HETATM   13  C   UNK     0      -1.308   2.637  -9.548  0.00  0.00     0.010 A 
HETATM   14  C   UNK     0      -1.150   3.948  -9.101  0.00  0.00     0.001 A 
HETATM   15  C   UNK     0      -0.262   4.805  -9.750  0.00  0.00     0.000 A 
HETATM   16  C   UNK     0       0.469   4.350 -10.848  0.00  0.00     0.001 A 
HETATM   17  C   UNK     0       0.310   3.039 -11.297  0.00  0.00     0.010 A 
ENDBRANCH   3  12
BRANCH   7  18
HETATM   18  C   UNK     0      -2.180   0.676 -15.013  0.00  0.00     0.085 C 
BRANCH  18  19
HETATM   19  C   UNK     0      -1.116   1.720 -15.278  0.00  0.00    -0.021 A 
HETATM   20  C   UNK     0      -1.209   2.969 -14.690  0.00  0.00     0.072 A 
HETATM   21  C   UNK     0      -0.220   3.919 -14.946  0.00  0.00     0.037 A 
HETATM   22  C   UNK     0       0.848   3.605 -15.786  0.00  0.00     0.003 A 
HETATM   23  C   UNK     0       0.926   2.341 -16.371  0.00  0.00     0.001 A 
HETATM   24  C   UNK     0      -0.063   1.392 -16.116  0.00  0.00     0.010 A 
BRANCH  20  25
HETATM   25  O   UNK     0      -2.245   3.293 -13.867  0.00  0.00    -0.360 OA
HETATM   26  H   UNK     0      -2.300   2.636 -13.151  0.00  0.00     0.217 HD
ENDBRANCH  20  25
ENDBRANCH  18  19
ENDBRANCH   7  18
BRANCH   9  27
HETATM   27  O   UNK     0      -0.239  -4.033 -12.557  0.00  0.00    -0.360 OA
HETATM   28  H   UNK     0      -0.072  -4.683 -13.261  0.00  0.00     0.217 HD
ENDBRANCH   9  27
BRANCH  10  29
HETATM   29  O   UNK     0      -2.466  -1.903 -16.156  0.00  0.00    -0.360 OA
HETATM   30  H   UNK     0      -3.415  -1.728 -16.035  0.00  0.00     0.217 HD
ENDBRANCH  10  29
TORSDOF 6
ENDMDL
MODEL 7
REMARK VINA RESULT:      -6.2      2.035      5.391
REMARK  6 active torsions:
REMARK  status: ('A' for Active; 'I' for Inactive)
REMARK    1  A    between atoms: O_3  and  C_14 
REMARK    2  A    between atoms: O_4  and  C_15 
REMARK    3  A    between atoms: O_5  and  C_20 
REMARK    4  A    between atoms: C_6  and  C_12 
REMARK    5  A    between atoms: C_10  and  C_13 
REMARK    6  A    between atoms: C_13  and  C_17 
ROOT
HETATM    1  O   UNK     0       0.560  -0.562 -11.090  0.00  0.00    -0.339 OA
HETATM    2  O   UNK     0      -1.558   2.061  -8.753  0.00  0.00    -0.292 OA
HETATM    3  C   UNK     0       0.843  -0.435  -9.687  0.00  0.00     0.169 C 
HETATM    4  C   UNK     0      -0.411  -0.040  -8.909  0.00  0.00     0.121 C 
HETATM    5  C   UNK     0       0.016   0.574 -11.630  0.00  0.00     0.095 A 
HETATM    6  C   UNK     0      -0.697   1.517 -10.883  0.00  0.00     0.077 A 
HETATM    7  C   UNK     0       0.177   0.756 -13.004  0.00  0.00     0.014 A 
HETATM    8  C   UNK     0      -0.929   1.269  -9.445  0.00  0.00     0.167 C 
HETATM    9  C   UNK     0      -1.221   2.656 -11.499  0.00  0.00     0.085 A 
HETATM   10  C   UNK     0      -0.346   1.892 -13.622  0.00  0.00     0.077 A 
HETATM   11  C   UNK     0      -1.040   2.843 -12.870  0.00  0.00     0.074 A 
ENDROOT
BRANCH   3  12
HETATM   12  C   UNK     0       1.402  -1.752  -9.191  0.00  0.00    -0.029 A 
HETATM   13  C   UNK     0       2.056  -2.610 -10.076  0.00  0.00     0.010 A 
HETATM   14  C   UNK     0       2.570  -3.823  -9.619  0.00  0.00     0.001 A 
HETATM   15  C   UNK     0       2.432  -4.178  -8.278  0.00  0.00     0.000 A 
HETATM   16  C   UNK     0       1.777  -3.320  -7.393  0.00  0.00     0.001 A 
HETATM   17  C   UNK     0       1.262  -2.108  -7.850  0.00  0.00     0.010 A 
ENDBRANCH   3  12
BRANCH   7  18
HETATM   18  C   UNK     0       0.919  -0.254 -13.820  0.00  0.00     0.085 C 
BRANCH  18  19
HETATM   19  C   UNK     0       0.052  -1.384 -14.329  0.00  0.00    -0.021 A 
HETATM   20  C   UNK     0      -0.536  -1.297 -15.580  0.00  0.00     0.072 A 
HETATM   21  C   UNK     0      -1.334  -2.348 -16.034  0.00  0.00     0.037 A 
HETATM   22  C   UNK     0      -1.531  -3.471 -15.231  0.00  0.00     0.003 A 
HETATM   23  C   UNK     0      -0.931  -3.543 -13.974  0.00  0.00     0.001 A 
HETATM   24  C   UNK     0      -0.134  -2.492 -13.519  0.00  0.00     0.010 A 
BRANCH  20  25
HETATM   25  O   UNK     0      -0.355  -0.207 -16.376  0.00  0.00    -0.360 OA
HETATM   26  H   UNK     0       0.083  -0.484 -17.200  0.00  0.00     0.217 HD
ENDBRANCH  20  25
ENDBRANCH  18  19
ENDBRANCH   7  18
BRANCH   9  27
HETATM   27  O   UNK     0      -1.920   3.606 -10.817  0.00  0.00    -0.360 OA
HETATM   28  H   UNK     0      -2.773   3.238 -10.529  0.00  0.00     0.217 HD
ENDBRANCH   9  27
BRANCH  10  29
HETATM   29  O   UNK     0      -0.191   2.093 -14.961  0.00  0.00    -0.360 OA
HETATM   30  H   UNK     0       0.076   3.015 -15.117  0.00  0.00     0.217 HD
ENDBRANCH  10  29
TORSDOF 6
ENDMDL
MODEL 8
REMARK VINA RESULT:      -6.2      2.347      3.749
REMARK  6 active torsions:
REMARK  status: ('A' for Active; 'I' for Inactive)
REMARK    1  A    between atoms: O_3  and  C_14 
REMARK    2  A    between atoms: O_4  and  C_15 
REMARK    3  A    between atoms: O_5  and  C_20 
REMARK    4  A    between atoms: C_6  and  C_12 
REMARK    5  A    between atoms: C_10  and  C_13 
REMARK    6  A    between atoms: C_13  and  C_17 
ROOT
HETATM    1  O   UNK     0       0.325  -0.496 -11.941  0.00  0.00    -0.339 OA
HETATM    2  O   UNK     0      -1.472  -3.064 -14.589  0.00  0.00    -0.292 OA
HETATM    3  C   UNK     0       0.128  -1.879 -11.604  0.00  0.00     0.169 C 
HETATM    4  C   UNK     0       0.157  -2.757 -12.854  0.00  0.00     0.121 C 
HETATM    5  C   UNK     0      -0.586  -0.034 -12.855  0.00  0.00     0.095 A 
HETATM    6  C   UNK     0      -1.248  -0.861 -13.769  0.00  0.00     0.077 A 
HETATM    7  C   UNK     0      -0.822   1.340 -12.867  0.00  0.00     0.014 A 
HETATM    8  C   UNK     0      -0.926  -2.303 -13.799  0.00  0.00     0.167 C 
HETATM    9  C   UNK     0      -2.168  -0.321 -14.670  0.00  0.00     0.085 A 
HETATM   10  C   UNK     0      -1.740   1.882 -13.768  0.00  0.00     0.077 A 
HETATM   11  C   UNK     0      -2.415   1.052 -14.664  0.00  0.00     0.074 A 
ENDROOT
BRANCH   3  12
HETATM   12  C   UNK     0       1.205  -2.291 -10.623  0.00  0.00    -0.029 A 
HETATM   13  C   UNK     0       2.177  -3.217 -11.003  0.00  0.00     0.010 A 
HETATM   14  C   UNK     0       3.169  -3.596 -10.099  0.00  0.00     0.001 A 
HETATM   15  C   UNK     0       3.191  -3.049  -8.816  0.00  0.00     0.000 A 
HETATM   16  C   UNK     0       2.219  -2.122  -8.437  0.00  0.00     0.001 A 
HETATM   17  C   UNK     0       1.226  -1.744  -9.340  0.00  0.00     0.010 A 
ENDBRANCH   3  12
BRANCH   7  18
HETATM   18  C   UNK     0      -0.106   2.240 -11.910  0.00  0.00     0.085 C 
BRANCH  18  19
HETATM   19  C   UNK     0       1.317   2.556 -12.317  0.00  0.00    -0.021 A 
HETATM   20  C   UNK     0       2.373   2.134 -11.527  0.00  0.00     0.072 A 
HETATM   21  C   UNK     0       3.679   2.435 -11.917  0.00  0.00     0.037 A 
HETATM   22  C   UNK     0       3.909   3.152 -13.090  0.00  0.00     0.003 A 
HETATM   23  C   UNK     0       2.833   3.570 -13.873  0.00  0.00     0.001 A 
HETATM   24  C   UNK     0       1.528   3.271 -13.484  0.00  0.00     0.010 A 
BRANCH  20  25
HETATM   25  O   UNK     0       2.167   1.432 -10.378  0.00  0.00    -0.360 OA
HETATM   26  H   UNK     0       2.980   0.950 -10.149  0.00  0.00     0.217 HD
ENDBRANCH  20  25
ENDBRANCH  18  19
ENDBRANCH   7  18
BRANCH   9  27
HETATM   27  O   UNK     0      -2.842  -1.082 -15.578  0.00  0.00    -0.360 OA
HETATM   28  H   UNK     0      -2.915  -1.994 -15.247  0.00  0.00     0.217 HD
ENDBRANCH   9  27
BRANCH  10  29
HETATM   29  O   UNK     0      -1.991   3.222 -13.787  0.00  0.00    -0.360 OA
HETATM   30  H   UNK     0      -1.914   3.574 -12.884  0.00  0.00     0.217 HD
ENDBRANCH  10  29
TORSDOF 6
ENDMDL
MODEL 9
REMARK VINA RESULT:      -6.1      2.704      6.727
REMARK  6 active torsions:
REMARK  status: ('A' for Active; 'I' for Inactive)
REMARK    1  A    between atoms: O_3  and  C_14 
REMARK    2  A    between atoms: O_4  and  C_15 
REMARK    3  A    between atoms: O_5  and  C_20 
REMARK    4  A    between atoms: C_6  and  C_12 
REMARK    5  A    between atoms: C_10  and  C_13 
REMARK    6  A    between atoms: C_13  and  C_17 
ROOT
HETATM    1  O   UNK     0       0.679   0.493 -12.129  0.00  0.00    -0.339 OA
HETATM    2  O   UNK     0      -1.769   3.432 -10.644  0.00  0.00    -0.292 OA
HETATM    3  C   UNK     0      -0.748   0.401 -12.270  0.00  0.00     0.169 C 
HETATM    4  C   UNK     0      -1.381   1.789 -12.349  0.00  0.00     0.121 C 
HETATM    5  C   UNK     0       1.061   1.241 -11.046  0.00  0.00     0.095 A 
HETATM    6  C   UNK     0       0.264   2.242 -10.480  0.00  0.00     0.077 A 
HETATM    7  C   UNK     0       2.328   0.985 -10.522  0.00  0.00     0.014 A 
HETATM    8  C   UNK     0      -1.042   2.556 -11.098  0.00  0.00     0.167 C 
HETATM    9  C   UNK     0       0.716   2.963  -9.374  0.00  0.00     0.085 A 
HETATM   10  C   UNK     0       2.783   1.705  -9.417  0.00  0.00     0.077 A 
HETATM   11  C   UNK     0       1.977   2.689  -8.841  0.00  0.00     0.074 A 
ENDROOT
BRANCH   3  12
HETATM   12  C   UNK     0      -1.055  -0.411 -13.511  0.00  0.00    -0.029 A 
HETATM   13  C   UNK     0      -1.016   0.195 -14.767  0.00  0.00     0.010 A 
HETATM   14  C   UNK     0      -1.298  -0.553 -15.910  0.00  0.00     0.001 A 
HETATM   15  C   UNK     0      -1.619  -1.906 -15.798  0.00  0.00     0.000 A 
HETATM   16  C   UNK     0      -1.658  -2.511 -14.541  0.00  0.00     0.001 A 
HETATM   17  C   UNK     0      -1.377  -1.763 -13.398  0.00  0.00     0.010 A 
ENDBRANCH   3  12
BRANCH   7  18
HETATM   18  C   UNK     0       3.200  -0.067 -11.129  0.00  0.00     0.085 C 
BRANCH  18  19
HETATM   19  C   UNK     0       2.851  -1.474 -10.697  0.00  0.00    -0.021 A 
HETATM   20  C   UNK     0       2.316  -2.367 -11.611  0.00  0.00     0.072 A 
HETATM   21  C   UNK     0       1.999  -3.661 -11.195  0.00  0.00     0.037 A 
HETATM   22  C   UNK     0       2.221  -4.042  -9.873  0.00  0.00     0.003 A 
HETATM   23  C   UNK     0       2.760  -3.130  -8.965  0.00  0.00     0.001 A 
HETATM   24  C   UNK     0       3.077  -1.837  -9.380  0.00  0.00     0.010 A 
BRANCH  20  25
HETATM   25  O   UNK     0       2.093  -2.010 -12.906  0.00  0.00    -0.360 OA
HETATM   26  H   UNK     0       2.897  -2.179 -13.426  0.00  0.00     0.217 HD
ENDBRANCH  20  25
ENDBRANCH  18  19
ENDBRANCH   7  18
BRANCH   9  27
HETATM   27  O   UNK     0      -0.022   3.944  -8.783  0.00  0.00    -0.360 OA
HETATM   28  H   UNK     0      -0.836   4.091  -9.294  0.00  0.00     0.217 HD
ENDBRANCH   9  27
BRANCH  10  29
HETATM   29  O   UNK     0       4.014   1.463  -8.884  0.00  0.00    -0.360 OA
HETATM   30  H   UNK     0       4.072   0.526  -8.628  0.00  0.00     0.217 HD
ENDBRANCH  10  29
TORSDOF 6
ENDMDL
