REMARK VINA RESULT:      -7.0      0.000      0.000
REMARK  6 active torsions:
REMARK  status: ('A' for Active; 'I' for Inactive)
REMARK    1  A    between atoms: O_3  and  C_14 
REMARK    2  A    between atoms: O_4  and  C_15 
REMARK    3  A    between atoms: O_5  and  C_20 
REMARK    4  A    between atoms: C_6  and  C_12 
REMARK    5  A    between atoms: C_10  and  C_13 
REMARK    6  A    between atoms: C_13  and  C_17 
ROOT
HETATM    1  O   UNK     0      -0.318   1.059 -11.909  0.00  0.00    -0.339 OA
HETATM    2  O   UNK     0      -1.692  -1.468 -14.835  0.00  0.00    -0.292 OA
HETATM    3  C   UNK     0      -0.930  -0.196 -11.568  0.00  0.00     0.169 C 
HETATM    4  C   UNK     0      -0.697  -1.234 -12.664  0.00  0.00     0.121 C 
HETATM    5  C   UNK     0      -0.746   1.551 -13.114  0.00  0.00     0.095 A 
HETATM    6  C   UNK     0      -1.244   0.745 -14.143  0.00  0.00     0.077 A 
HETATM    7  C   UNK     0      -0.639   2.929 -13.304  0.00  0.00     0.014 A 
HETATM    8  C   UNK     0      -1.274  -0.721 -13.958  0.00  0.00     0.167 C 
HETATM    9  C   UNK     0      -1.666   1.316 -15.345  0.00  0.00     0.085 A 
HETATM   10  C   UNK     0      -1.059   3.502 -14.504  0.00  0.00     0.077 A 
HETATM   11  C   UNK     0      -1.576   2.697 -15.522  0.00  0.00     0.074 A 
ENDROOT
BRANCH   3  12
HETATM   12  C   UNK     0      -0.360  -0.662 -10.244  0.00  0.00    -0.029 A 
HETATM   13  C   UNK     0      -0.983  -0.298  -9.051  0.00  0.00     0.010 A 
HETATM   14  C   UNK     0      -0.459  -0.727  -7.832  0.00  0.00     0.001 A 
HETATM   15  C   UNK     0       0.687  -1.521  -7.806  0.00  0.00     0.000 A 
HETATM   16  C   UNK     0       1.311  -1.885  -9.000  0.00  0.00     0.001 A 
HETATM   17  C   UNK     0       0.787  -1.455 -10.219  0.00  0.00     0.010 A 
ENDBRANCH   3  12
BRANCH   7  18
HETATM   18  C   UNK     0      -0.088   3.801 -12.221  0.00  0.00     0.085 C 
BRANCH  18  19
HETATM   19  C   UNK     0      -1.121   4.241 -11.206  0.00  0.00    -0.021 A 
HETATM   20  C   UNK     0      -1.778   5.449 -11.366  0.00  0.00     0.072 A 
HETATM   21  C   UNK     0      -2.727   5.840 -10.420  0.00  0.00     0.037 A 
HETATM   22  C   UNK     0      -3.004   5.017  -9.329  0.00  0.00     0.003 A 
HETATM   23  C   UNK     0      -2.332   3.803  -9.183  0.00  0.00     0.001 A 
HETATM   24  C   UNK     0      -1.383   3.413 -10.127  0.00  0.00     0.010 A 
BRANCH  20  25
HETATM   25  O   UNK     0      -1.520   6.265 -12.426  0.00  0.00    -0.360 OA
HETATM   26  H   UNK     0      -1.622   7.191 -12.146  0.00  0.00     0.217 HD
ENDBRANCH  20  25
ENDBRANCH  18  19
ENDBRANCH   7  18
BRANCH   9  27
HETATM   27  O   UNK     0      -2.163   0.577 -16.377  0.00  0.00    -0.360 OA
HETATM   28  H   UNK     0      -1.447   0.052 -16.775  0.00  0.00     0.217 HD
ENDBRANCH   9  27
BRANCH  10  29
HETATM   29  O   UNK     0      -0.972   4.847 -14.704  0.00  0.00    -0.360 OA
HETATM   30  H   UNK     0      -1.632   5.115 -15.366  0.00  0.00     0.217 HD
ENDBRANCH  10  29
TORSDOF 6
