REMARK VINA RESULT:      -6.4      0.000      0.000
REMARK  14 active torsions:
REMARK  status: ('A' for Active; 'I' for Inactive)
REMARK    1  A    between atoms: O_9  and  C_22 
REMARK    2  A    between atoms: O_10  and  C_23 
REMARK    3  A    between atoms: O_11  and  C_34 
REMARK    4  A    between atoms: O_12  and  C_35 
REMARK    5  A    between atoms: O_15  and  C_43 
REMARK    6  A    between atoms: O_15  and  C_48 
REMARK       I    between atoms: N_18  and  C_36 
REMARK    7  A    between atoms: N_18  and  C_38 
REMARK       I    between atoms: N_19  and  C_37 
REMARK    8  A    between atoms: N_19  and  C_39 
REMARK    9  A    between atoms: C_28  and  C_37 
REMARK   10  A    between atoms: C_29  and  C_36 
REMARK   11  A    between atoms: C_38  and  C_40 
REMARK   12  A    between atoms: C_39  and  C_41 
REMARK   13  A    between atoms: C_40  and  C_42 
REMARK   14  A    between atoms: C_41  and  C_43 
ROOT
HETATM    1 Br   UNK     0       1.962  -5.865 -10.770  0.00  0.00    -0.050 Br
HETATM    2 Br   UNK     0       3.482  -3.658  -5.741  0.00  0.00    -0.048 Br
HETATM    3  O   UNK     0       0.640  -1.749  -9.222  0.00  0.00    -0.237 OA
HETATM    4  N   UNK     0       0.332  -0.368  -9.116  0.00  0.00    -0.132 NA
HETATM    5  C   UNK     0       2.079  -1.894  -9.341  0.00  0.00     0.146 C 
HETATM    6  C   UNK     0       2.366  -3.070 -10.313  0.00  0.00     0.202 C 
HETATM    7  C   UNK     0       2.546  -0.553  -9.903  0.00  0.00     0.115 C 
HETATM    8  C   UNK     0       2.612  -2.158  -7.947  0.00  0.00     0.039 C 
HETATM    9  C   UNK     0       1.392   0.263  -9.480  0.00  0.00     0.132 C 
HETATM   10  C   UNK     0       2.329  -4.421  -9.635  0.00  0.00     0.055 C 
HETATM   11  C   UNK     0       2.837  -3.399  -7.481  0.00  0.00     0.044 C 
HETATM   12  C   UNK     0       2.547  -4.558  -8.315  0.00  0.00     0.101 C 
ENDROOT
BRANCH   6  13
HETATM   13  O   UNK     0       3.660  -2.908 -10.897  0.00  0.00    -0.387 OA
HETATM   14  H   UNK     0       3.660  -3.375 -11.750  0.00  0.00     0.210 HD
ENDBRANCH   6  13
BRANCH  12  15
HETATM   15  O   UNK     0       2.516  -5.796  -7.703  0.00  0.00    -0.353 OA
HETATM   16  C   UNK     0       1.201  -6.126  -7.302  0.00  0.00     0.210 C 
ENDBRANCH  12  15
BRANCH   9  17
HETATM   17  C   UNK     0       1.448   1.738  -9.518  0.00  0.00     0.268 C 
HETATM   18  O   UNK     0       0.587   2.355  -8.913  0.00  0.00    -0.266 OA
HETATM   19  N   UNK     0       2.503   2.227 -10.261  0.00  0.00    -0.356 N 
HETATM   20  H   UNK     0       3.117   1.573 -10.735  0.00  0.00     0.162 HD
BRANCH  19  21
HETATM   21  C   UNK     0       2.755   3.631 -10.438  0.00  0.00     0.125 C 
BRANCH  21  22
HETATM   22  C   UNK     0       2.674   4.058 -11.898  0.00  0.00     0.046 C 
BRANCH  22  23
HETATM   23  C   UNK     0       1.308   3.788 -12.518  0.00  0.00     0.177 C 
BRANCH  23  24
HETATM   24  O   UNK     0       1.474   2.906 -13.626  0.00  0.00    -0.348 OA
BRANCH  24  25
HETATM   25  C   UNK     0       0.832   1.703 -13.559  0.00  0.00     0.103 A 
HETATM   26  C   UNK     0       1.559   0.536 -13.324  0.00  0.00     0.046 A 
HETATM   27 Br   UNK     0       3.440   0.575 -13.094  0.00  0.00    -0.048 Br
HETATM   28  C   UNK     0       0.901  -0.692 -13.254  0.00  0.00     0.029 A 
HETATM   29  C   UNK     0      -0.482  -0.754 -13.420  0.00  0.00    -0.054 A 
HETATM   30  C   UNK     0      -1.209   0.413 -13.654  0.00  0.00     0.029 A 
HETATM   31  C   UNK     0      -0.552   1.642 -13.724  0.00  0.00     0.046 A 
HETATM   32 Br   UNK     0      -1.578   3.205 -14.044  0.00  0.00    -0.048 Br
BRANCH  29  33
HETATM   33  C   UNK     0      -1.193  -2.083 -13.345  0.00  0.00     0.058 C 
BRANCH  33  34
HETATM   34  C   UNK     0      -0.397  -3.141 -12.584  0.00  0.00     0.127 C 
BRANCH  34  35
HETATM   35  N   UNK     0      -0.938  -4.470 -12.755  0.00  0.00    -0.356 N 
HETATM   36  C   UNK     0      -0.733  -5.231 -13.887  0.00  0.00     0.268 C 
HETATM   37  O   UNK     0      -0.098  -4.941 -14.893  0.00  0.00    -0.266 OA
HETATM   38  H   UNK     0      -1.492  -4.851 -11.995  0.00  0.00     0.162 HD
BRANCH  36  39
HETATM   39  C   UNK     0      -1.384  -6.556 -13.832  0.00  0.00     0.132 C 
HETATM   40  N   UNK     0      -1.568  -7.269 -14.888  0.00  0.00    -0.132 NA
HETATM   41  O   UNK     0      -2.193  -8.465 -14.452  0.00  0.00    -0.237 OA
HETATM   42  C   UNK     0      -2.685  -8.265 -13.101  0.00  0.00     0.146 C 
HETATM   43  C   UNK     0      -2.500  -9.592 -12.320  0.00  0.00     0.202 C 
HETATM   44  C   UNK     0      -1.812  -7.141 -12.547  0.00  0.00     0.115 C 
HETATM   45  C   UNK     0      -4.142  -7.865 -13.219  0.00  0.00     0.039 C 
HETATM   46  C   UNK     0      -3.630 -10.573 -12.540  0.00  0.00     0.055 C 
HETATM   47 Br   UNK     0      -3.186 -12.368 -12.247  0.00  0.00    -0.050 Br
HETATM   48  C   UNK     0      -4.857 -10.167 -12.917  0.00  0.00     0.101 C 
HETATM   49  C   UNK     0      -5.146  -8.754 -13.122  0.00  0.00     0.044 C 
HETATM   50 Br   UNK     0      -6.927  -8.198 -13.294  0.00  0.00    -0.048 Br
BRANCH  43  51
HETATM   51  O   UNK     0      -2.424  -9.320 -10.918  0.00  0.00    -0.387 OA
HETATM   52  H   UNK     0      -2.806 -10.080 -10.448  0.00  0.00     0.210 HD
ENDBRANCH  43  51
BRANCH  48  53
HETATM   53  O   UNK     0      -5.885 -11.068 -13.111  0.00  0.00    -0.353 OA
HETATM   54  C   UNK     0      -5.866 -11.572 -14.434  0.00  0.00     0.210 C 
ENDBRANCH  48  53
ENDBRANCH  36  39
ENDBRANCH  34  35
ENDBRANCH  33  34
ENDBRANCH  29  33
ENDBRANCH  24  25
ENDBRANCH  23  24
ENDBRANCH  22  23
ENDBRANCH  21  22
ENDBRANCH  19  21
ENDBRANCH   9  17
TORSDOF 14
