162817372
  -OEChem-04052509232D

101106  0     1  0  0  0  0  0999 V2000
    8.5991   -1.0000    0.0000 O   0  0  0  0  0  0  0  0  0  0  0  0
    8.5991    2.0000    0.0000 O   0  0  0  0  0  0  0  0  0  0  0  0
    6.8671    1.0000    0.0000 O   0  0  0  0  0  0  0  0  0  0  0  0
   10.3312    1.0000    0.0000 O   0  0  0  0  0  0  0  0  0  0  0  0
   10.3312   -2.0000    0.0000 O   0  0  0  0  0  0  0  0  0  0  0  0
    7.7331   -2.5000    0.0000 O   0  0  0  0  0  0  0  0  0  0  0  0
   10.3312    2.0000    0.0000 O   0  0  0  0  0  0  0  0  0  0  0  0
    6.0010   -0.5000    0.0000 O   0  0  0  0  0  0  0  0  0  0  0  0
   11.1972   -0.5000    0.0000 O   0  0  0  0  0  0  0  0  0  0  0  0
   12.0632   -2.0000    0.0000 O   0  0  0  0  0  0  0  0  0  0  0  0
    5.1350   -5.0000    0.0000 O   0  0  0  0  0  0  0  0  0  0  0  0
    3.4030   -2.0000    0.0000 O   0  0  0  0  0  0  0  0  0  0  0  0
    3.4030   -4.0000    0.0000 O   0  0  0  0  0  0  0  0  0  0  0  0
   11.1972    5.5000    0.0000 O   0  0  0  0  0  0  0  0  0  0  0  0
    7.7331    5.5000    0.0000 O   0  0  0  0  0  0  0  0  0  0  0  0
    2.5369    0.5000    0.0000 O   0  0  0  0  0  0  0  0  0  0  0  0
    4.2690    3.5000    0.0000 O   0  0  0  0  0  0  0  0  0  0  0  0
   14.6613    0.5000    0.0000 O   0  0  0  0  0  0  0  0  0  0  0  0
   12.9292    3.5000    0.0000 O   0  0  0  0  0  0  0  0  0  0  0  0
    9.4651    6.5000    0.0000 O   0  0  0  0  0  0  0  0  0  0  0  0
    2.5369    2.5000    0.0000 O   0  0  0  0  0  0  0  0  0  0  0  0
   14.6613    2.5000    0.0000 O   0  0  0  0  0  0  0  0  0  0  0  0
    9.4651   -5.5000    0.0000 O   0  0  0  0  0  0  0  0  0  0  0  0
   12.9292   -5.5000    0.0000 O   0  0  0  0  0  0  0  0  0  0  0  0
   11.1972   -6.5000    0.0000 O   0  0  0  0  0  0  0  0  0  0  0  0
    8.5991    1.0000    0.0000 C   0  0  2  0  0  0  0  0  0  0  0  0
    7.7331    0.5000    0.0000 C   0  0  2  0  0  0  0  0  0  0  0  0
    9.4651    0.5000    0.0000 C   0  0  1  0  0  0  0  0  0  0  0  0
    7.7331   -0.5000    0.0000 C   0  0  2  0  0  0  0  0  0  0  0  0
    9.4651   -0.5000    0.0000 C   0  0  1  0  0  0  0  0  0  0  0  0
    6.8671   -1.0000    0.0000 C   0  0  0  0  0  0  0  0  0  0  0  0
   10.3312   -1.0000    0.0000 C   0  0  0  0  0  0  0  0  0  0  0  0
    6.8671   -2.0000    0.0000 C   0  0  0  0  0  0  0  0  0  0  0  0
    9.4651    2.5000    0.0000 C   0  0  0  0  0  0  0  0  0  0  0  0
    6.0010    0.5000    0.0000 C   0  0  0  0  0  0  0  0  0  0  0  0
   11.1972    0.5000    0.0000 C   0  0  0  0  0  0  0  0  0  0  0  0
    6.0010   -2.5000    0.0000 C   0  0  0  0  0  0  0  0  0  0  0  0
    9.4651    3.5000    0.0000 C   0  0  0  0  0  0  0  0  0  0  0  0
    5.1350    1.0000    0.0000 C   0  0  0  0  0  0  0  0  0  0  0  0
   12.0632    1.0000    0.0000 C   0  0  0  0  0  0  0  0  0  0  0  0
   11.1972   -2.5000    0.0000 C   0  0  0  0  0  0  0  0  0  0  0  0
    5.1350   -2.0000    0.0000 C   0  0  0  0  0  0  0  0  0  0  0  0
    6.0010   -3.5000    0.0000 C   0  0  0  0  0  0  0  0  0  0  0  0
   11.1972   -3.5000    0.0000 C   0  0  0  0  0  0  0  0  0  0  0  0
    8.5991    4.0000    0.0000 C   0  0  0  0  0  0  0  0  0  0  0  0
   10.3312    4.0000    0.0000 C   0  0  0  0  0  0  0  0  0  0  0  0
    5.1350    2.0000    0.0000 C   0  0  0  0  0  0  0  0  0  0  0  0
    4.2690    0.5000    0.0000 C   0  0  0  0  0  0  0  0  0  0  0  0
   12.0632    2.0000    0.0000 C   0  0  0  0  0  0  0  0  0  0  0  0
   12.9292    0.5000    0.0000 C   0  0  0  0  0  0  0  0  0  0  0  0
    5.1350   -4.0000    0.0000 C   0  0  0  0  0  0  0  0  0  0  0  0
    4.2690   -2.5000    0.0000 C   0  0  0  0  0  0  0  0  0  0  0  0
    4.2690   -3.5000    0.0000 C   0  0  0  0  0  0  0  0  0  0  0  0
   10.3312    5.0000    0.0000 C   0  0  0  0  0  0  0  0  0  0  0  0
    8.5991    5.0000    0.0000 C   0  0  0  0  0  0  0  0  0  0  0  0
    3.4030    1.0000    0.0000 C   0  0  0  0  0  0  0  0  0  0  0  0
    4.2690    2.5000    0.0000 C   0  0  0  0  0  0  0  0  0  0  0  0
   13.7953    1.0000    0.0000 C   0  0  0  0  0  0  0  0  0  0  0  0
   12.9292    2.5000    0.0000 C   0  0  0  0  0  0  0  0  0  0  0  0
   12.0632   -4.0000    0.0000 C   0  0  0  0  0  0  0  0  0  0  0  0
   10.3312   -4.0000    0.0000 C   0  0  0  0  0  0  0  0  0  0  0  0
    9.4651    5.5000    0.0000 C   0  0  0  0  0  0  0  0  0  0  0  0
    3.4030    2.0000    0.0000 C   0  0  0  0  0  0  0  0  0  0  0  0
   13.7953    2.0000    0.0000 C   0  0  0  0  0  0  0  0  0  0  0  0
   10.3312   -5.0000    0.0000 C   0  0  0  0  0  0  0  0  0  0  0  0
   12.0632   -5.0000    0.0000 C   0  0  0  0  0  0  0  0  0  0  0  0
   11.1972   -5.5000    0.0000 C   0  0  0  0  0  0  0  0  0  0  0  0
    9.1360    1.3100    0.0000 H   0  0  0  0  0  0  0  0  0  0  0  0
    7.7331    1.1200    0.0000 H   0  0  0  0  0  0  0  0  0  0  0  0
   10.0021    0.1900    0.0000 H   0  0  0  0  0  0  0  0  0  0  0  0
    7.7331   -1.1200    0.0000 H   0  0  0  0  0  0  0  0  0  0  0  0
    9.4651   -1.1200    0.0000 H   0  0  0  0  0  0  0  0  0  0  0  0
    6.6550   -0.4174    0.0000 H   0  0  0  0  0  0  0  0  0  0  0  0
    6.2565   -1.1077    0.0000 H   0  0  0  0  0  0  0  0  0  0  0  0
   10.9417   -1.1077    0.0000 H   0  0  0  0  0  0  0  0  0  0  0  0
   10.5432   -0.4174    0.0000 H   0  0  0  0  0  0  0  0  0  0  0  0
    5.1350   -1.3800    0.0000 H   0  0  0  0  0  0  0  0  0  0  0  0
    6.5380   -3.8100    0.0000 H   0  0  0  0  0  0  0  0  0  0  0  0
    8.0622    3.6900    0.0000 H   0  0  0  0  0  0  0  0  0  0  0  0
   10.8681    3.6900    0.0000 H   0  0  0  0  0  0  0  0  0  0  0  0
    5.6720    2.3100    0.0000 H   0  0  0  0  0  0  0  0  0  0  0  0
    4.2690   -0.1200    0.0000 H   0  0  0  0  0  0  0  0  0  0  0  0
   11.5263    2.3100    0.0000 H   0  0  0  0  0  0  0  0  0  0  0  0
   12.9292   -0.1200    0.0000 H   0  0  0  0  0  0  0  0  0  0  0  0
   12.6002   -3.6900    0.0000 H   0  0  0  0  0  0  0  0  0  0  0  0
    9.7942   -3.6900    0.0000 H   0  0  0  0  0  0  0  0  0  0  0  0
    5.6720   -5.3100    0.0000 H   0  0  0  0  0  0  0  0  0  0  0  0
    2.8660   -2.3100    0.0000 H   0  0  0  0  0  0  0  0  0  0  0  0
    3.4030   -4.6200    0.0000 H   0  0  0  0  0  0  0  0  0  0  0  0
   11.1972    6.1200    0.0000 H   0  0  0  0  0  0  0  0  0  0  0  0
    7.7331    6.1200    0.0000 H   0  0  0  0  0  0  0  0  0  0  0  0
    2.0000    0.8100    0.0000 H   0  0  0  0  0  0  0  0  0  0  0  0
    3.7320    3.8100    0.0000 H   0  0  0  0  0  0  0  0  0  0  0  0
   14.6613   -0.1200    0.0000 H   0  0  0  0  0  0  0  0  0  0  0  0
   13.4662    3.8100    0.0000 H   0  0  0  0  0  0  0  0  0  0  0  0
   10.0021    6.8100    0.0000 H   0  0  0  0  0  0  0  0  0  0  0  0
    2.0000    2.1900    0.0000 H   0  0  0  0  0  0  0  0  0  0  0  0
   15.1982    2.1900    0.0000 H   0  0  0  0  0  0  0  0  0  0  0  0
    9.4651   -6.1200    0.0000 H   0  0  0  0  0  0  0  0  0  0  0  0
   13.4662   -5.1900    0.0000 H   0  0  0  0  0  0  0  0  0  0  0  0
   11.7341   -6.8100    0.0000 H   0  0  0  0  0  0  0  0  0  0  0  0
  1 29  1  0  0  0  0
  1 30  1  0  0  0  0
 26  2  1  1  0  0  0
  2 34  1  0  0  0  0
 27  3  1  6  0  0  0
  3 35  1  0  0  0  0
 28  4  1  6  0  0  0
  4 36  1  0  0  0  0
  5 32  1  0  0  0  0
  5 41  1  0  0  0  0
  6 33  2  0  0  0  0
  7 34  2  0  0  0  0
  8 35  2  0  0  0  0
  9 36  2  0  0  0  0
 10 41  2  0  0  0  0
 11 51  1  0  0  0  0
 11 87  1  0  0  0  0
 12 52  1  0  0  0  0
 12 88  1  0  0  0  0
 13 53  1  0  0  0  0
 13 89  1  0  0  0  0
 14 54  1  0  0  0  0
 14 90  1  0  0  0  0
 15 55  1  0  0  0  0
 15 91  1  0  0  0  0
 16 56  1  0  0  0  0
 16 92  1  0  0  0  0
 17 57  1  0  0  0  0
 17 93  1  0  0  0  0
 18 58  1  0  0  0  0
 18 94  1  0  0  0  0
 19 59  1  0  0  0  0
 19 95  1  0  0  0  0
 20 62  1  0  0  0  0
 20 96  1  0  0  0  0
 21 63  1  0  0  0  0
 21 97  1  0  0  0  0
 22 64  1  0  0  0  0
 22 98  1  0  0  0  0
 23 65  1  0  0  0  0
 23 99  1  0  0  0  0
 24 66  1  0  0  0  0
 24100  1  0  0  0  0
 25 67  1  0  0  0  0
 25101  1  0  0  0  0
 26 27  1  0  0  0  0
 26 28  1  0  0  0  0
 26 68  1  0  0  0  0
 27 29  1  0  0  0  0
 27 69  1  0  0  0  0
 28 30  1  0  0  0  0
 28 70  1  0  0  0  0
 29 31  1  1  0  0  0
 29 71  1  0  0  0  0
 30 32  1  1  0  0  0
 30 72  1  0  0  0  0
 31 33  1  0  0  0  0
 31 73  1  0  0  0  0
 31 74  1  0  0  0  0
 32 75  1  0  0  0  0
 32 76  1  0  0  0  0
 33 37  1  0  0  0  0
 34 38  1  0  0  0  0
 35 39  1  0  0  0  0
 36 40  1  0  0  0  0
 37 42  2  0  0  0  0
 37 43  1  0  0  0  0
 38 45  2  0  0  0  0
 38 46  1  0  0  0  0
 39 47  2  0  0  0  0
 39 48  1  0  0  0  0
 40 49  2  0  0  0  0
 40 50  1  0  0  0  0
 41 44  1  0  0  0  0
 42 52  1  0  0  0  0
 42 77  1  0  0  0  0
 43 51  2  0  0  0  0
 43 78  1  0  0  0  0
 44 60  2  0  0  0  0
 44 61  1  0  0  0  0
 45 55  1  0  0  0  0
 45 79  1  0  0  0  0
 46 54  2  0  0  0  0
 46 80  1  0  0  0  0
 47 57  1  0  0  0  0
 47 81  1  0  0  0  0
 48 56  2  0  0  0  0
 48 82  1  0  0  0  0
 49 59  1  0  0  0  0
 49 83  1  0  0  0  0
 50 58  2  0  0  0  0
 50 84  1  0  0  0  0
 51 53  1  0  0  0  0
 52 53  2  0  0  0  0
 54 62  1  0  0  0  0
 55 62  2  0  0  0  0
 56 63  1  0  0  0  0
 57 63  2  0  0  0  0
 58 64  1  0  0  0  0
 59 64  2  0  0  0  0
 60 66  1  0  0  0  0
 60 85  1  0  0  0  0
 61 65  2  0  0  0  0
 61 86  1  0  0  0  0
 65 67  1  0  0  0  0
 66 67  2  0  0  0  0
M  END
> <PUBCHEM_COMPOUND_CID>
162817372

> <PUBCHEM_COMPOUND_CANONICALIZED>
1

> <PUBCHEM_CACTVS_COMPLEXITY>
1670

> <PUBCHEM_CACTVS_HBOND_ACCEPTOR>
25

> <PUBCHEM_CACTVS_HBOND_DONOR>
15

> <PUBCHEM_CACTVS_ROTATABLE_BOND>
16

> <PUBCHEM_CACTVS_SUBSKEYS>
AAADcfB8PgAAAAAAAAAAAAAAAAAAAAAAAAA0YMGDAAAAAAABVAAAGgAACAAADBSgmAIwDoAABgCIAqDSCAACAAAkIAAAiAEGiMgJJzaCNRqCcQEl4BULuYfK7PzOIAABCAAAQABAAAIQAACAAAAAAAAAAA==

> <PUBCHEM_IUPAC_OPENEYE_NAME>
[(2R,3R,4R,5S,6S)-6-[2-oxo-2-(3,4,5-trihydroxyphenyl)ethyl]-3,4,5-tris[(3,4,5-trihydroxybenzoyl)oxy]tetrahydropyran-2-yl]methyl 3,4,5-trihydroxybenzoate

> <PUBCHEM_IUPAC_CAS_NAME>
3,4,5-trihydroxybenzoic acid [(2R,3R,4R,5S,6S)-6-[2-oxo-2-(3,4,5-trihydroxyphenyl)ethyl]-3,4,5-tris[oxo-(3,4,5-trihydroxyphenyl)methoxy]-2-oxanyl]methyl ester

> <PUBCHEM_IUPAC_NAME_MARKUP>
[(2<I>R</I>,3<I>R</I>,4<I>R</I>,5<I>S</I>,6<I>S</I>)-6-[2-oxo-2-(3,4,5-trihydroxyphenyl)ethyl]-3,4,5-tris[(3,4,5-trihydroxybenzoyl)oxy]oxan-2-yl]methyl 3,4,5-trihydroxybenzoate

> <PUBCHEM_IUPAC_NAME>
[(2R,3R,4R,5S,6S)-6-[2-oxo-2-(3,4,5-trihydroxyphenyl)ethyl]-3,4,5-tris[(3,4,5-trihydroxybenzoyl)oxy]oxan-2-yl]methyl 3,4,5-trihydroxybenzoate

> <PUBCHEM_IUPAC_SYSTEMATIC_NAME>
[(2R,3R,4R,5S,6S)-6-[2-oxidanylidene-2-[3,4,5-tris(oxidanyl)phenyl]ethyl]-3,4,5-tris[[3,4,5-tris(oxidanyl)phenyl]carbonyloxy]oxan-2-yl]methyl 3,4,5-tris(oxidanyl)benzoate

> <PUBCHEM_IUPAC_TRADITIONAL_NAME>
3,4,5-trihydroxybenzoic acid [(2R,3R,4R,5S,6S)-3,4,5-trigalloyloxy-6-[2-keto-2-(3,4,5-trihydroxyphenyl)ethyl]tetrahydropyran-2-yl]methyl ester

> <PUBCHEM_IUPAC_INCHI>
InChI=1S/C42H34O25/c43-18(13-1-19(44)31(54)20(45)2-13)11-29-36(65-40(60)15-5-23(48)33(56)24(49)6-15)38(67-42(62)17-9-27(52)35(58)28(53)10-17)37(66-41(61)16-7-25(50)34(57)26(51)8-16)30(64-29)12-63-39(59)14-3-21(46)32(55)22(47)4-14/h1-10,29-30,36-38,44-58H,11-12H2/t29-,30+,36-,37+,38+/m0/s1

> <PUBCHEM_IUPAC_INCHIKEY>
QMQJHZMCRRSTQA-XGHHBHORSA-N

> <PUBCHEM_XLOGP3_AA>
2.4

> <PUBCHEM_EXACT_MASS>
938.13891657

> <PUBCHEM_MOLECULAR_FORMULA>
C42H34O25

> <PUBCHEM_MOLECULAR_WEIGHT>
938.7

> <PUBCHEM_SMILES>
C1=C(C=C(C(=C1O)O)O)C(=O)C[C@H]2[C@@H]([C@H]([C@@H]([C@H](O2)COC(=O)C3=CC(=C(C(=C3)O)O)O)OC(=O)C4=CC(=C(C(=C4)O)O)O)OC(=O)C5=CC(=C(C(=C5)O)O)O)OC(=O)C6=CC(=C(C(=C6)O)O)O

> <PUBCHEM_OPENEYE_CAN_SMILES>
C1=C(C=C(C(=C1O)O)O)C(=O)CC2C(C(C(C(O2)COC(=O)C3=CC(=C(C(=C3)O)O)O)OC(=O)C4=CC(=C(C(=C4)O)O)O)OC(=O)C5=CC(=C(C(=C5)O)O)O)OC(=O)C6=CC(=C(C(=C6)O)O)O

> <PUBCHEM_OPENEYE_ISO_SMILES>
C1=C(C=C(C(=C1O)O)O)C(=O)C[C@H]2[C@@H]([C@H]([C@@H]([C@H](O2)COC(=O)C3=CC(=C(C(=C3)O)O)O)OC(=O)C4=CC(=C(C(=C4)O)O)O)OC(=O)C5=CC(=C(C(=C5)O)O)O)OC(=O)C6=CC(=C(C(=C6)O)O)O

> <PUBCHEM_CACTVS_TPSA>
435

> <PUBCHEM_MONOISOTOPIC_WEIGHT>
938.13891657

> <PUBCHEM_TOTAL_CHARGE>
0

> <PUBCHEM_HEAVY_ATOM_COUNT>
67

> <PUBCHEM_ATOM_DEF_STEREO_COUNT>
5

> <PUBCHEM_ATOM_UDEF_STEREO_COUNT>
0

> <PUBCHEM_BOND_DEF_STEREO_COUNT>
0

> <PUBCHEM_BOND_UDEF_STEREO_COUNT>
0

> <PUBCHEM_ISOTOPIC_ATOM_COUNT>
0

> <PUBCHEM_COMPONENT_COUNT>
1

> <PUBCHEM_CACTVS_TAUTO_COUNT>
-1

> <PUBCHEM_COORDINATE_TYPE>
1
5
255

> <PUBCHEM_BONDANNOTATIONS>
26  2  5
29  31  5
27  3  6
30  32  5
37  42  8
37  43  8
38  45  8
38  46  8
39  47  8
39  48  8
28  4  6
40  49  8
40  50  8
42  52  8
43  51  8
44  60  8
44  61  8
45  55  8
46  54  8
47  57  8
48  56  8
49  59  8
50  58  8
51  53  8
52  53  8
54  62  8
55  62  8
56  63  8
57  63  8
58  64  8
59  64  8
60  66  8
61  65  8
65  67  8
66  67  8

$$$$
