REMARK VINA RESULT:      -5.9      0.000      0.000
REMARK  31 active torsions:
REMARK  status: ('A' for Active; 'I' for Inactive)
REMARK    1  A    between atoms: O_2  and  C_34 
REMARK    2  A    between atoms: O_2  and  C_26 
REMARK    3  A    between atoms: O_3  and  C_27 
REMARK    4  A    between atoms: O_3  and  C_35 
REMARK    5  A    between atoms: O_4  and  C_28 
REMARK    6  A    between atoms: O_4  and  C_36 
REMARK    7  A    between atoms: O_5  and  C_32 
REMARK    8  A    between atoms: O_5  and  C_41 
REMARK    9  A    between atoms: O_11  and  C_51 
REMARK   10  A    between atoms: O_12  and  C_52 
REMARK   11  A    between atoms: O_13  and  C_53 
REMARK   12  A    between atoms: O_14  and  C_54 
REMARK   13  A    between atoms: O_15  and  C_55 
REMARK   14  A    between atoms: O_16  and  C_56 
REMARK   15  A    between atoms: O_17  and  C_57 
REMARK   16  A    between atoms: O_18  and  C_58 
REMARK   17  A    between atoms: O_19  and  C_59 
REMARK   18  A    between atoms: O_20  and  C_62 
REMARK   19  A    between atoms: O_21  and  C_63 
REMARK   20  A    between atoms: O_22  and  C_64 
REMARK   21  A    between atoms: O_23  and  C_65 
REMARK   22  A    between atoms: O_24  and  C_66 
REMARK   23  A    between atoms: O_25  and  C_67 
REMARK   24  A    between atoms: C_29  and  C_31 
REMARK   25  A    between atoms: C_30  and  C_32 
REMARK   26  A    between atoms: C_31  and  C_33 
REMARK   27  A    between atoms: C_33  and  C_37 
REMARK   28  A    between atoms: C_34  and  C_38 
REMARK   29  A    between atoms: C_35  and  C_39 
REMARK   30  A    between atoms: C_36  and  C_40 
REMARK   31  A    between atoms: C_41  and  C_44 
ROOT
HETATM    1  O   UNL     1       1.018  -2.668 -11.400  1.00  0.00    -0.373 OA
HETATM    2  C   UNL     1       0.925  -3.084 -14.273  1.00  0.00     0.196 C 
HETATM    3  C   UNL     1      -0.379  -3.028 -13.457  1.00  0.00     0.193 C 
HETATM    4  C   UNL     1       2.204  -3.331 -13.453  1.00  0.00     0.195 C 
HETATM    5  C   UNL     1      -0.234  -2.424 -12.039  1.00  0.00     0.161 C 
HETATM    6  C   UNL     1       2.239  -2.556 -12.132  1.00  0.00     0.178 C 
ENDROOT
BRANCH   5   7
HETATM    7  C   UNL     1      -0.614  -0.942 -11.931  1.00  0.00     0.118 C 
BRANCH   7   8
HETATM    8  C   UNL     1      -0.295  -0.447 -10.528  1.00  0.00     0.162 C 
HETATM    9  O   UNL     1      -0.012  -1.187  -9.591  1.00  0.00    -0.292 OA
BRANCH   8  10
HETATM   10  C   UNL     1      -0.210   1.010 -10.306  1.00  0.00     0.015 C 
HETATM   11  C   UNL     1      -1.583   1.914  -9.501  1.00  0.00     0.054 C 
HETATM   12  C   UNL     1      -1.634   3.722  -9.646  1.00  0.00     0.102 C 
HETATM   13  C   UNL     1      -0.206   4.644 -10.321  1.00  0.00     0.132 C 
HETATM   14  C   UNL     1       1.251   3.745 -10.926  1.00  0.00     0.102 C 
HETATM   15  C   UNL     1       1.201   1.934 -11.039  1.00  0.00     0.054 C 
BRANCH  12  16
HETATM   16  O   UNL     1      -2.737   4.407  -9.234  1.00  0.00    -0.358 OA
HETATM   17  H   UNL     1      -2.713   5.287  -9.643  1.00  0.00     0.217 HD
ENDBRANCH  12  16
BRANCH  13  18
HETATM   18  O   UNL     1      -0.233   6.002 -10.416  1.00  0.00    -0.356 OA
HETATM   19  H   UNL     1       0.529   6.214 -10.987  1.00  0.00     0.218 HD
ENDBRANCH  13  18
BRANCH  14  20
HETATM   20  O   UNL     1       2.274   4.461 -11.470  1.00  0.00    -0.358 OA
HETATM   21  H   UNL     1       2.492   4.031 -12.314  1.00  0.00     0.217 HD
ENDBRANCH  14  20
ENDBRANCH   8  10
ENDBRANCH   7   8
ENDBRANCH   5   7
BRANCH   6  22
HETATM   22  C   UNL     1       2.724  -1.107 -12.365  1.00  0.00     0.213 C 
BRANCH  22  23
HETATM   23  O   UNL     1       3.733  -0.673 -11.437  1.00  0.00    -0.315 OA
BRANCH  23  24
HETATM   24  C   UNL     1       3.718  -1.061 -10.012  1.00  0.00     0.293 C 
HETATM   25  O   UNL     1       4.015   0.039  -9.472  1.00  0.00    -0.259 OA
BRANCH  24  26
HETATM   26  C   UNL     1       3.310  -3.032  -9.247  1.00  0.00     0.045 A 
HETATM   27  C   UNL     1       3.817  -4.417  -9.715  1.00  0.00     0.057 A 
HETATM   28  C   UNL     1       3.539  -5.716  -9.208  1.00  0.00     0.102 A 
HETATM   29  C   UNL     1       2.728  -5.888  -8.121  1.00  0.00     0.132 A 
HETATM   30  C   UNL     1       2.184  -4.777  -7.545  1.00  0.00     0.102 A 
HETATM   31  C   UNL     1       2.447  -3.479  -8.050  1.00  0.00     0.057 A 
BRANCH  28  32
HETATM   32  O   UNL     1       4.069  -6.842  -9.782  1.00  0.00    -0.358 OA
HETATM   33  H   UNL     1       3.728  -6.925 -10.692  1.00  0.00     0.217 HD
ENDBRANCH  28  32
BRANCH  29  34
HETATM   34  O   UNL     1       2.460  -7.125  -7.616  1.00  0.00    -0.356 OA
HETATM   35  H   UNL     1       2.119  -6.949  -6.715  1.00  0.00     0.218 HD
ENDBRANCH  29  34
BRANCH  30  36
HETATM   36  O   UNL     1       1.365  -4.910  -6.457  1.00  0.00    -0.358 OA
HETATM   37  H   UNL     1       0.673  -4.228  -6.577  1.00  0.00     0.217 HD
ENDBRANCH  30  36
ENDBRANCH  24  26
ENDBRANCH  23  24
ENDBRANCH  22  23
ENDBRANCH   6  22
BRANCH   3  38
HETATM   38  O   UNL     1      -0.824  -4.404 -13.316  1.00  0.00    -0.307 OA
BRANCH  38  39
HETATM   39  C   UNL     1      -1.206  -5.022 -14.458  1.00  0.00     0.294 C 
HETATM   40  O   UNL     1      -0.954  -4.690 -15.600  1.00  0.00    -0.259 OA
BRANCH  39  41
HETATM   41  C   UNL     1      -1.740  -6.336 -14.063  1.00  0.00     0.045 A 
HETATM   42  C   UNL     1      -1.817  -6.711 -12.715  1.00  0.00     0.057 A 
HETATM   43  C   UNL     1      -2.211  -8.009 -12.406  1.00  0.00     0.102 A 
HETATM   44  C   UNL     1      -2.498  -8.918 -13.422  1.00  0.00     0.132 A 
HETATM   45  C   UNL     1      -2.424  -8.530 -14.755  1.00  0.00     0.102 A 
HETATM   46  C   UNL     1      -2.061  -7.235 -15.089  1.00  0.00     0.057 A 
BRANCH  43  47
HETATM   47  O   UNL     1      -2.293  -8.444 -11.110  1.00  0.00    -0.358 OA
HETATM   48  H   UNL     1      -1.384  -8.593 -10.791  1.00  0.00     0.217 HD
ENDBRANCH  43  47
BRANCH  44  49
HETATM   49  O   UNL     1      -2.847 -10.208 -13.133  1.00  0.00    -0.356 OA
HETATM   50  H   UNL     1      -2.048 -10.600 -12.727  1.00  0.00     0.218 HD
ENDBRANCH  44  49
BRANCH  45  51
HETATM   51  O   UNL     1      -2.680  -9.428 -15.748  1.00  0.00    -0.358 OA
HETATM   52  H   UNL     1      -3.655  -9.517 -15.764  1.00  0.00     0.217 HD
ENDBRANCH  45  51
ENDBRANCH  39  41
ENDBRANCH  38  39
ENDBRANCH   3  38
BRANCH   4  53
HETATM   53  O   UNL     1       2.569  -4.734 -13.341  1.00  0.00    -0.307 OA
BRANCH  53  54
HETATM   54  C   UNL     1       2.371  -5.648 -14.310  1.00  0.00     0.294 C 
HETATM   55  O   UNL     1       2.539  -5.520 -15.508  1.00  0.00    -0.259 OA
BRANCH  54  56
HETATM   56  C   UNL     1       1.893  -6.916 -13.702  1.00  0.00     0.045 A 
HETATM   57  C   UNL     1       1.888  -7.015 -12.301  1.00  0.00     0.057 A 
HETATM   58  C   UNL     1       1.469  -8.197 -11.699  1.00  0.00     0.102 A 
HETATM   59  C   UNL     1       1.091  -9.282 -12.480  1.00  0.00     0.132 A 
HETATM   60  C   UNL     1       1.112  -9.188 -13.866  1.00  0.00     0.102 A 
HETATM   61  C   UNL     1       1.503  -8.011 -14.489  1.00  0.00     0.057 A 
BRANCH  58  62
HETATM   62  O   UNL     1       1.416  -8.335 -10.340  1.00  0.00    -0.358 OA
HETATM   63  H   UNL     1       0.847  -9.098 -10.135  1.00  0.00     0.217 HD
ENDBRANCH  58  62
BRANCH  59  64
HETATM   64  O   UNL     1       0.702 -10.458 -11.900  1.00  0.00    -0.356 OA
HETATM   65  H   UNL     1       0.133 -10.884 -12.575  1.00  0.00     0.218 HD
ENDBRANCH  59  64
BRANCH  60  66
HETATM   66  O   UNL     1       0.756 -10.260 -14.631  1.00  0.00    -0.358 OA
HETATM   67  H   UNL     1       0.757 -11.020 -14.012  1.00  0.00     0.217 HD
ENDBRANCH  60  66
ENDBRANCH  54  56
ENDBRANCH  53  54
ENDBRANCH   4  53
BRANCH   2  68
HETATM   68  O   UNL     1       1.128  -1.833 -14.978  1.00  0.00    -0.307 OA
BRANCH  68  69
HETATM   69  C   UNL     1       0.034  -1.308 -15.581  1.00  0.00     0.294 C 
HETATM   70  O   UNL     1      -0.704  -1.882 -16.360  1.00  0.00    -0.259 OA
BRANCH  69  71
HETATM   71  C   UNL     1      -0.116   0.122 -15.218  1.00  0.00     0.045 A 
HETATM   72  C   UNL     1       1.045   0.880 -14.991  1.00  0.00     0.057 A 
HETATM   73  C   UNL     1       0.923   2.196 -14.557  1.00  0.00     0.102 A 
HETATM   74  C   UNL     1      -0.333   2.750 -14.342  1.00  0.00     0.132 A 
HETATM   75  C   UNL     1      -1.478   1.997 -14.565  1.00  0.00     0.102 A 
HETATM   76  C   UNL     1      -1.384   0.685 -15.003  1.00  0.00     0.057 A 
BRANCH  73  77
HETATM   77  O   UNL     1       2.014   2.983 -14.311  1.00  0.00    -0.358 OA
HETATM   78  H   UNL     1       2.060   3.159 -13.354  1.00  0.00     0.217 HD
ENDBRANCH  73  77
BRANCH  74  79
HETATM   79  O   UNL     1      -0.463   4.035 -13.892  1.00  0.00    -0.356 OA
HETATM   80  H   UNL     1      -0.192   3.994 -12.952  1.00  0.00     0.218 HD
ENDBRANCH  74  79
BRANCH  75  81
HETATM   81  O   UNL     1      -2.711   2.533 -14.332  1.00  0.00    -0.358 OA
HETATM   82  H   UNL     1      -3.218   2.364 -15.151  1.00  0.00     0.217 HD
ENDBRANCH  75  81
ENDBRANCH  69  71
ENDBRANCH  68  69
ENDBRANCH   2  68
TORSDOF 31
