MODEL 1
REMARK VINA RESULT:      -5.9      0.000      0.000
REMARK  31 active torsions:
REMARK  status: ('A' for Active; 'I' for Inactive)
REMARK    1  A    between atoms: O_2  and  C_34 
REMARK    2  A    between atoms: O_2  and  C_26 
REMARK    3  A    between atoms: O_3  and  C_27 
REMARK    4  A    between atoms: O_3  and  C_35 
REMARK    5  A    between atoms: O_4  and  C_28 
REMARK    6  A    between atoms: O_4  and  C_36 
REMARK    7  A    between atoms: O_5  and  C_32 
REMARK    8  A    between atoms: O_5  and  C_41 
REMARK    9  A    between atoms: O_11  and  C_51 
REMARK   10  A    between atoms: O_12  and  C_52 
REMARK   11  A    between atoms: O_13  and  C_53 
REMARK   12  A    between atoms: O_14  and  C_54 
REMARK   13  A    between atoms: O_15  and  C_55 
REMARK   14  A    between atoms: O_16  and  C_56 
REMARK   15  A    between atoms: O_17  and  C_57 
REMARK   16  A    between atoms: O_18  and  C_58 
REMARK   17  A    between atoms: O_19  and  C_59 
REMARK   18  A    between atoms: O_20  and  C_62 
REMARK   19  A    between atoms: O_21  and  C_63 
REMARK   20  A    between atoms: O_22  and  C_64 
REMARK   21  A    between atoms: O_23  and  C_65 
REMARK   22  A    between atoms: O_24  and  C_66 
REMARK   23  A    between atoms: O_25  and  C_67 
REMARK   24  A    between atoms: C_29  and  C_31 
REMARK   25  A    between atoms: C_30  and  C_32 
REMARK   26  A    between atoms: C_31  and  C_33 
REMARK   27  A    between atoms: C_33  and  C_37 
REMARK   28  A    between atoms: C_34  and  C_38 
REMARK   29  A    between atoms: C_35  and  C_39 
REMARK   30  A    between atoms: C_36  and  C_40 
REMARK   31  A    between atoms: C_41  and  C_44 
ROOT
HETATM    1  O   UNL     1       1.018  -2.668 -11.400  1.00  0.00    -0.373 OA
HETATM    2  C   UNL     1       0.925  -3.084 -14.273  1.00  0.00     0.196 C 
HETATM    3  C   UNL     1      -0.379  -3.028 -13.457  1.00  0.00     0.193 C 
HETATM    4  C   UNL     1       2.204  -3.331 -13.453  1.00  0.00     0.195 C 
HETATM    5  C   UNL     1      -0.234  -2.424 -12.039  1.00  0.00     0.161 C 
HETATM    6  C   UNL     1       2.239  -2.556 -12.132  1.00  0.00     0.178 C 
ENDROOT
BRANCH   5   7
HETATM    7  C   UNL     1      -0.614  -0.942 -11.931  1.00  0.00     0.118 C 
BRANCH   7   8
HETATM    8  C   UNL     1      -0.295  -0.447 -10.528  1.00  0.00     0.162 C 
HETATM    9  O   UNL     1      -0.012  -1.187  -9.591  1.00  0.00    -0.292 OA
BRANCH   8  10
HETATM   10  C   UNL     1      -0.210   1.010 -10.306  1.00  0.00     0.015 C 
HETATM   11  C   UNL     1      -1.583   1.914  -9.501  1.00  0.00     0.054 C 
HETATM   12  C   UNL     1      -1.634   3.722  -9.646  1.00  0.00     0.102 C 
HETATM   13  C   UNL     1      -0.206   4.644 -10.321  1.00  0.00     0.132 C 
HETATM   14  C   UNL     1       1.251   3.745 -10.926  1.00  0.00     0.102 C 
HETATM   15  C   UNL     1       1.201   1.934 -11.039  1.00  0.00     0.054 C 
BRANCH  12  16
HETATM   16  O   UNL     1      -2.737   4.407  -9.234  1.00  0.00    -0.358 OA
HETATM   17  H   UNL     1      -2.713   5.287  -9.643  1.00  0.00     0.217 HD
ENDBRANCH  12  16
BRANCH  13  18
HETATM   18  O   UNL     1      -0.233   6.002 -10.416  1.00  0.00    -0.356 OA
HETATM   19  H   UNL     1       0.529   6.214 -10.987  1.00  0.00     0.218 HD
ENDBRANCH  13  18
BRANCH  14  20
HETATM   20  O   UNL     1       2.274   4.461 -11.470  1.00  0.00    -0.358 OA
HETATM   21  H   UNL     1       2.492   4.031 -12.314  1.00  0.00     0.217 HD
ENDBRANCH  14  20
ENDBRANCH   8  10
ENDBRANCH   7   8
ENDBRANCH   5   7
BRANCH   6  22
HETATM   22  C   UNL     1       2.724  -1.107 -12.365  1.00  0.00     0.213 C 
BRANCH  22  23
HETATM   23  O   UNL     1       3.733  -0.673 -11.437  1.00  0.00    -0.315 OA
BRANCH  23  24
HETATM   24  C   UNL     1       3.718  -1.061 -10.012  1.00  0.00     0.293 C 
HETATM   25  O   UNL     1       4.015   0.039  -9.472  1.00  0.00    -0.259 OA
BRANCH  24  26
HETATM   26  C   UNL     1       3.310  -3.032  -9.247  1.00  0.00     0.045 A 
HETATM   27  C   UNL     1       3.817  -4.417  -9.715  1.00  0.00     0.057 A 
HETATM   28  C   UNL     1       3.539  -5.716  -9.208  1.00  0.00     0.102 A 
HETATM   29  C   UNL     1       2.728  -5.888  -8.121  1.00  0.00     0.132 A 
HETATM   30  C   UNL     1       2.184  -4.777  -7.545  1.00  0.00     0.102 A 
HETATM   31  C   UNL     1       2.447  -3.479  -8.050  1.00  0.00     0.057 A 
BRANCH  28  32
HETATM   32  O   UNL     1       4.069  -6.842  -9.782  1.00  0.00    -0.358 OA
HETATM   33  H   UNL     1       3.728  -6.925 -10.692  1.00  0.00     0.217 HD
ENDBRANCH  28  32
BRANCH  29  34
HETATM   34  O   UNL     1       2.460  -7.125  -7.616  1.00  0.00    -0.356 OA
HETATM   35  H   UNL     1       2.119  -6.949  -6.715  1.00  0.00     0.218 HD
ENDBRANCH  29  34
BRANCH  30  36
HETATM   36  O   UNL     1       1.365  -4.910  -6.457  1.00  0.00    -0.358 OA
HETATM   37  H   UNL     1       0.673  -4.228  -6.577  1.00  0.00     0.217 HD
ENDBRANCH  30  36
ENDBRANCH  24  26
ENDBRANCH  23  24
ENDBRANCH  22  23
ENDBRANCH   6  22
BRANCH   3  38
HETATM   38  O   UNL     1      -0.824  -4.404 -13.316  1.00  0.00    -0.307 OA
BRANCH  38  39
HETATM   39  C   UNL     1      -1.206  -5.022 -14.458  1.00  0.00     0.294 C 
HETATM   40  O   UNL     1      -0.954  -4.690 -15.600  1.00  0.00    -0.259 OA
BRANCH  39  41
HETATM   41  C   UNL     1      -1.740  -6.336 -14.063  1.00  0.00     0.045 A 
HETATM   42  C   UNL     1      -1.817  -6.711 -12.715  1.00  0.00     0.057 A 
HETATM   43  C   UNL     1      -2.211  -8.009 -12.406  1.00  0.00     0.102 A 
HETATM   44  C   UNL     1      -2.498  -8.918 -13.422  1.00  0.00     0.132 A 
HETATM   45  C   UNL     1      -2.424  -8.530 -14.755  1.00  0.00     0.102 A 
HETATM   46  C   UNL     1      -2.061  -7.235 -15.089  1.00  0.00     0.057 A 
BRANCH  43  47
HETATM   47  O   UNL     1      -2.293  -8.444 -11.110  1.00  0.00    -0.358 OA
HETATM   48  H   UNL     1      -1.384  -8.593 -10.791  1.00  0.00     0.217 HD
ENDBRANCH  43  47
BRANCH  44  49
HETATM   49  O   UNL     1      -2.847 -10.208 -13.133  1.00  0.00    -0.356 OA
HETATM   50  H   UNL     1      -2.048 -10.600 -12.727  1.00  0.00     0.218 HD
ENDBRANCH  44  49
BRANCH  45  51
HETATM   51  O   UNL     1      -2.680  -9.428 -15.748  1.00  0.00    -0.358 OA
HETATM   52  H   UNL     1      -3.655  -9.517 -15.764  1.00  0.00     0.217 HD
ENDBRANCH  45  51
ENDBRANCH  39  41
ENDBRANCH  38  39
ENDBRANCH   3  38
BRANCH   4  53
HETATM   53  O   UNL     1       2.569  -4.734 -13.341  1.00  0.00    -0.307 OA
BRANCH  53  54
HETATM   54  C   UNL     1       2.371  -5.648 -14.310  1.00  0.00     0.294 C 
HETATM   55  O   UNL     1       2.539  -5.520 -15.508  1.00  0.00    -0.259 OA
BRANCH  54  56
HETATM   56  C   UNL     1       1.893  -6.916 -13.702  1.00  0.00     0.045 A 
HETATM   57  C   UNL     1       1.888  -7.015 -12.301  1.00  0.00     0.057 A 
HETATM   58  C   UNL     1       1.469  -8.197 -11.699  1.00  0.00     0.102 A 
HETATM   59  C   UNL     1       1.091  -9.282 -12.480  1.00  0.00     0.132 A 
HETATM   60  C   UNL     1       1.112  -9.188 -13.866  1.00  0.00     0.102 A 
HETATM   61  C   UNL     1       1.503  -8.011 -14.489  1.00  0.00     0.057 A 
BRANCH  58  62
HETATM   62  O   UNL     1       1.416  -8.335 -10.340  1.00  0.00    -0.358 OA
HETATM   63  H   UNL     1       0.847  -9.098 -10.135  1.00  0.00     0.217 HD
ENDBRANCH  58  62
BRANCH  59  64
HETATM   64  O   UNL     1       0.702 -10.458 -11.900  1.00  0.00    -0.356 OA
HETATM   65  H   UNL     1       0.133 -10.884 -12.575  1.00  0.00     0.218 HD
ENDBRANCH  59  64
BRANCH  60  66
HETATM   66  O   UNL     1       0.756 -10.260 -14.631  1.00  0.00    -0.358 OA
HETATM   67  H   UNL     1       0.757 -11.020 -14.012  1.00  0.00     0.217 HD
ENDBRANCH  60  66
ENDBRANCH  54  56
ENDBRANCH  53  54
ENDBRANCH   4  53
BRANCH   2  68
HETATM   68  O   UNL     1       1.128  -1.833 -14.978  1.00  0.00    -0.307 OA
BRANCH  68  69
HETATM   69  C   UNL     1       0.034  -1.308 -15.581  1.00  0.00     0.294 C 
HETATM   70  O   UNL     1      -0.704  -1.882 -16.360  1.00  0.00    -0.259 OA
BRANCH  69  71
HETATM   71  C   UNL     1      -0.116   0.122 -15.218  1.00  0.00     0.045 A 
HETATM   72  C   UNL     1       1.045   0.880 -14.991  1.00  0.00     0.057 A 
HETATM   73  C   UNL     1       0.923   2.196 -14.557  1.00  0.00     0.102 A 
HETATM   74  C   UNL     1      -0.333   2.750 -14.342  1.00  0.00     0.132 A 
HETATM   75  C   UNL     1      -1.478   1.997 -14.565  1.00  0.00     0.102 A 
HETATM   76  C   UNL     1      -1.384   0.685 -15.003  1.00  0.00     0.057 A 
BRANCH  73  77
HETATM   77  O   UNL     1       2.014   2.983 -14.311  1.00  0.00    -0.358 OA
HETATM   78  H   UNL     1       2.060   3.159 -13.354  1.00  0.00     0.217 HD
ENDBRANCH  73  77
BRANCH  74  79
HETATM   79  O   UNL     1      -0.463   4.035 -13.892  1.00  0.00    -0.356 OA
HETATM   80  H   UNL     1      -0.192   3.994 -12.952  1.00  0.00     0.218 HD
ENDBRANCH  74  79
BRANCH  75  81
HETATM   81  O   UNL     1      -2.711   2.533 -14.332  1.00  0.00    -0.358 OA
HETATM   82  H   UNL     1      -3.218   2.364 -15.151  1.00  0.00     0.217 HD
ENDBRANCH  75  81
ENDBRANCH  69  71
ENDBRANCH  68  69
ENDBRANCH   2  68
TORSDOF 31
ENDMDL
MODEL 2
REMARK VINA RESULT:      -5.7      2.257      9.032
REMARK  31 active torsions:
REMARK  status: ('A' for Active; 'I' for Inactive)
REMARK    1  A    between atoms: O_2  and  C_34 
REMARK    2  A    between atoms: O_2  and  C_26 
REMARK    3  A    between atoms: O_3  and  C_27 
REMARK    4  A    between atoms: O_3  and  C_35 
REMARK    5  A    between atoms: O_4  and  C_28 
REMARK    6  A    between atoms: O_4  and  C_36 
REMARK    7  A    between atoms: O_5  and  C_32 
REMARK    8  A    between atoms: O_5  and  C_41 
REMARK    9  A    between atoms: O_11  and  C_51 
REMARK   10  A    between atoms: O_12  and  C_52 
REMARK   11  A    between atoms: O_13  and  C_53 
REMARK   12  A    between atoms: O_14  and  C_54 
REMARK   13  A    between atoms: O_15  and  C_55 
REMARK   14  A    between atoms: O_16  and  C_56 
REMARK   15  A    between atoms: O_17  and  C_57 
REMARK   16  A    between atoms: O_18  and  C_58 
REMARK   17  A    between atoms: O_19  and  C_59 
REMARK   18  A    between atoms: O_20  and  C_62 
REMARK   19  A    between atoms: O_21  and  C_63 
REMARK   20  A    between atoms: O_22  and  C_64 
REMARK   21  A    between atoms: O_23  and  C_65 
REMARK   22  A    between atoms: O_24  and  C_66 
REMARK   23  A    between atoms: O_25  and  C_67 
REMARK   24  A    between atoms: C_29  and  C_31 
REMARK   25  A    between atoms: C_30  and  C_32 
REMARK   26  A    between atoms: C_31  and  C_33 
REMARK   27  A    between atoms: C_33  and  C_37 
REMARK   28  A    between atoms: C_34  and  C_38 
REMARK   29  A    between atoms: C_35  and  C_39 
REMARK   30  A    between atoms: C_36  and  C_40 
REMARK   31  A    between atoms: C_41  and  C_44 
ROOT
HETATM    1  O   UNL     1      -1.490  -4.593 -13.845  1.00  0.00    -0.373 OA
HETATM    2  C   UNL     1       1.072  -5.794 -13.187  1.00  0.00     0.196 C 
HETATM    3  C   UNL     1      -0.231  -6.592 -12.992  1.00  0.00     0.193 C 
HETATM    4  C   UNL     1       0.895  -4.271 -13.324  1.00  0.00     0.195 C 
HETATM    5  C   UNL     1      -1.465  -6.014 -13.726  1.00  0.00     0.161 C 
HETATM    6  C   UNL     1      -0.306  -3.873 -14.189  1.00  0.00     0.178 C 
ENDROOT
BRANCH   5   7
HETATM    7  C   UNL     1      -1.775  -6.673 -15.076  1.00  0.00     0.118 C 
BRANCH   7   8
HETATM    8  C   UNL     1      -1.744  -8.185 -14.910  1.00  0.00     0.162 C 
HETATM    9  O   UNL     1      -0.735  -8.868 -15.057  1.00  0.00    -0.292 OA
BRANCH   8  10
HETATM   10  C   UNL     1      -2.970  -8.860 -14.436  1.00  0.00     0.015 C 
HETATM   11  C   UNL     1      -4.623  -8.242 -14.919  1.00  0.00     0.054 C 
HETATM   12  C   UNL     1      -6.069  -8.808 -13.979  1.00  0.00     0.102 C 
HETATM   13  C   UNL     1      -5.922 -10.178 -12.778  1.00  0.00     0.132 C 
HETATM   14  C   UNL     1      -4.303 -10.935 -12.457  1.00  0.00     0.102 C 
HETATM   15  C   UNL     1      -2.811 -10.197 -13.183  1.00  0.00     0.054 C 
BRANCH  12  16
HETATM   16  O   UNL     1      -7.282  -8.222 -14.181  1.00  0.00    -0.358 OA
HETATM   17  H   UNL     1      -7.897  -8.572 -13.515  1.00  0.00     0.217 HD
ENDBRANCH  12  16
BRANCH  13  18
HETATM   18  O   UNL     1      -7.008 -10.617 -12.083  1.00  0.00    -0.356 OA
HETATM   19  H   UNL     1      -6.843 -11.571 -11.965  1.00  0.00     0.218 HD
ENDBRANCH  13  18
BRANCH  14  20
HETATM   20  O   UNL     1      -4.222 -11.917 -11.517  1.00  0.00    -0.358 OA
HETATM   21  H   UNL     1      -4.909 -12.568 -11.741  1.00  0.00     0.217 HD
ENDBRANCH  14  20
ENDBRANCH   8  10
ENDBRANCH   7   8
ENDBRANCH   5   7
BRANCH   6  22
HETATM   22  C   UNL     1       0.067  -3.918 -15.688  1.00  0.00     0.213 C 
BRANCH  22  23
HETATM   23  O   UNL     1       0.101  -2.627 -16.320  1.00  0.00    -0.315 OA
BRANCH  23  24
HETATM   24  C   UNL     1       0.825  -1.478 -15.736  1.00  0.00     0.293 C 
HETATM   25  O   UNL     1       1.936  -1.586 -16.323  1.00  0.00    -0.259 OA
BRANCH  24  26
HETATM   26  C   UNL     1       0.045  -0.114 -14.264  1.00  0.00     0.045 A 
HETATM   27  C   UNL     1       0.319  -0.010 -12.745  1.00  0.00     0.057 A 
HETATM   28  C   UNL     1      -0.205   0.891 -11.778  1.00  0.00     0.102 A 
HETATM   29  C   UNL     1      -1.077   1.880 -12.136  1.00  0.00     0.132 A 
HETATM   30  C   UNL     1      -1.440   1.969 -13.449  1.00  0.00     0.102 A 
HETATM   31  C   UNL     1      -0.931   1.069 -14.419  1.00  0.00     0.057 A 
BRANCH  28  32
HETATM   32  O   UNL     1       0.141   0.807 -10.454  1.00  0.00    -0.358 OA
HETATM   33  H   UNL     1      -0.425   0.143 -10.019  1.00  0.00     0.217 HD
ENDBRANCH  28  32
BRANCH  29  34
HETATM   34  O   UNL     1      -1.579   2.759 -11.223  1.00  0.00    -0.356 OA
HETATM   35  H   UNL     1      -2.438   2.369 -10.961  1.00  0.00     0.218 HD
ENDBRANCH  29  34
BRANCH  30  36
HETATM   36  O   UNL     1      -2.314   2.945 -13.846  1.00  0.00    -0.358 OA
HETATM   37  H   UNL     1      -1.899   3.785 -13.562  1.00  0.00     0.217 HD
ENDBRANCH  30  36
ENDBRANCH  24  26
ENDBRANCH  23  24
ENDBRANCH  22  23
ENDBRANCH   6  22
BRANCH   3  38
HETATM   38  O   UNL     1      -0.504  -6.570 -11.565  1.00  0.00    -0.307 OA
BRANCH  38  39
HETATM   39  C   UNL     1      -1.607  -7.245 -11.164  1.00  0.00     0.294 C 
HETATM   40  O   UNL     1      -2.730  -7.166 -11.620  1.00  0.00    -0.259 OA
BRANCH  39  41
HETATM   41  C   UNL     1      -1.138  -8.312 -10.263  1.00  0.00     0.045 A 
HETATM   42  C   UNL     1      -0.409  -9.404 -10.753  1.00  0.00     0.057 A 
HETATM   43  C   UNL     1      -0.100 -10.444  -9.882  1.00  0.00     0.102 A 
HETATM   44  C   UNL     1      -0.533 -10.404  -8.558  1.00  0.00     0.132 A 
HETATM   45  C   UNL     1      -1.250  -9.311  -8.085  1.00  0.00     0.102 A 
HETATM   46  C   UNL     1      -1.547  -8.250  -8.924  1.00  0.00     0.057 A 
BRANCH  43  47
HETATM   47  O   UNL     1       0.597 -11.546 -10.298  1.00  0.00    -0.358 OA
HETATM   48  H   UNL     1       1.144 -11.278 -11.060  1.00  0.00     0.217 HD
ENDBRANCH  43  47
BRANCH  44  49
HETATM   49  O   UNL     1      -0.272 -11.438  -7.702  1.00  0.00    -0.356 OA
HETATM   50  H   UNL     1       0.657 -11.309  -7.427  1.00  0.00     0.218 HD
ENDBRANCH  44  49
BRANCH  45  51
HETATM   51  O   UNL     1      -1.694  -9.286  -6.796  1.00  0.00    -0.358 OA
HETATM   52  H   UNL     1      -2.383  -8.590  -6.778  1.00  0.00     0.217 HD
ENDBRANCH  45  51
ENDBRANCH  39  41
ENDBRANCH  38  39
ENDBRANCH   3  38
BRANCH   4  53
HETATM   53  O   UNL     1       0.999  -3.551 -12.065  1.00  0.00    -0.307 OA
BRANCH  53  54
HETATM   54  C   UNL     1       2.158  -3.126 -11.529  1.00  0.00     0.294 C 
HETATM   55  O   UNL     1       3.084  -2.569 -12.089  1.00  0.00    -0.259 OA
BRANCH  54  56
HETATM   56  C   UNL     1       2.174  -3.436 -10.077  1.00  0.00     0.045 A 
HETATM   57  C   UNL     1       1.476  -2.579  -9.211  1.00  0.00     0.057 A 
HETATM   58  C   UNL     1       1.490  -2.826  -7.843  1.00  0.00     0.102 A 
HETATM   59  C   UNL     1       2.218  -3.894  -7.334  1.00  0.00     0.132 A 
HETATM   60  C   UNL     1       2.922  -4.732  -8.190  1.00  0.00     0.102 A 
HETATM   61  C   UNL     1       2.903  -4.519  -9.561  1.00  0.00     0.057 A 
BRANCH  58  62
HETATM   62  O   UNL     1       0.802  -2.040  -6.961  1.00  0.00    -0.358 OA
HETATM   63  H   UNL     1      -0.036  -2.487  -6.747  1.00  0.00     0.217 HD
ENDBRANCH  58  62
BRANCH  59  64
HETATM   64  O   UNL     1       2.261  -4.132  -5.988  1.00  0.00    -0.356 OA
HETATM   65  H   UNL     1       2.298  -3.239  -5.586  1.00  0.00     0.218 HD
ENDBRANCH  59  64
BRANCH  60  66
HETATM   66  O   UNL     1       3.649  -5.771  -7.686  1.00  0.00    -0.358 OA
HETATM   67  H   UNL     1       2.985  -6.377  -7.298  1.00  0.00     0.217 HD
ENDBRANCH  60  66
ENDBRANCH  54  56
ENDBRANCH  53  54
ENDBRANCH   4  53
BRANCH   2  68
HETATM   68  O   UNL     1       1.753  -6.235 -14.389  1.00  0.00    -0.307 OA
BRANCH  68  69
HETATM   69  C   UNL     1       3.060  -6.563 -14.244  1.00  0.00     0.294 C 
HETATM   70  O   UNL     1       3.986  -6.140 -14.911  1.00  0.00    -0.259 OA
BRANCH  69  71
HETATM   71  C   UNL     1       3.218  -7.587 -13.183  1.00  0.00     0.045 A 
HETATM   72  C   UNL     1       2.836  -8.909 -13.467  1.00  0.00     0.057 A 
HETATM   73  C   UNL     1       2.887  -9.863 -12.457  1.00  0.00     0.102 A 
HETATM   74  C   UNL     1       3.305  -9.510 -11.179  1.00  0.00     0.132 A 
HETATM   75  C   UNL     1       3.680  -8.202 -10.902  1.00  0.00     0.102 A 
HETATM   76  C   UNL     1       3.643  -7.234 -11.893  1.00  0.00     0.057 A 
BRANCH  73  77
HETATM   77  O   UNL     1       2.521 -11.163 -12.667  1.00  0.00    -0.358 OA
HETATM   78  H   UNL     1       2.684 -11.668 -11.850  1.00  0.00     0.217 HD
ENDBRANCH  73  77
BRANCH  74  79
HETATM   79  O   UNL     1       3.337 -10.435 -10.173  1.00  0.00    -0.356 OA
HETATM   80  H   UNL     1       2.452 -10.854 -10.198  1.00  0.00     0.218 HD
ENDBRANCH  74  79
BRANCH  75  81
HETATM   81  O   UNL     1       4.068  -7.849  -9.642  1.00  0.00    -0.358 OA
HETATM   82  H   UNL     1       3.242  -7.832  -9.119  1.00  0.00     0.217 HD
ENDBRANCH  75  81
ENDBRANCH  69  71
ENDBRANCH  68  69
ENDBRANCH   2  68
TORSDOF 31
ENDMDL
MODEL 3
REMARK VINA RESULT:      -5.5      2.214      9.762
REMARK  31 active torsions:
REMARK  status: ('A' for Active; 'I' for Inactive)
REMARK    1  A    between atoms: O_2  and  C_34 
REMARK    2  A    between atoms: O_2  and  C_26 
REMARK    3  A    between atoms: O_3  and  C_27 
REMARK    4  A    between atoms: O_3  and  C_35 
REMARK    5  A    between atoms: O_4  and  C_28 
REMARK    6  A    between atoms: O_4  and  C_36 
REMARK    7  A    between atoms: O_5  and  C_32 
REMARK    8  A    between atoms: O_5  and  C_41 
REMARK    9  A    between atoms: O_11  and  C_51 
REMARK   10  A    between atoms: O_12  and  C_52 
REMARK   11  A    between atoms: O_13  and  C_53 
REMARK   12  A    between atoms: O_14  and  C_54 
REMARK   13  A    between atoms: O_15  and  C_55 
REMARK   14  A    between atoms: O_16  and  C_56 
REMARK   15  A    between atoms: O_17  and  C_57 
REMARK   16  A    between atoms: O_18  and  C_58 
REMARK   17  A    between atoms: O_19  and  C_59 
REMARK   18  A    between atoms: O_20  and  C_62 
REMARK   19  A    between atoms: O_21  and  C_63 
REMARK   20  A    between atoms: O_22  and  C_64 
REMARK   21  A    between atoms: O_23  and  C_65 
REMARK   22  A    between atoms: O_24  and  C_66 
REMARK   23  A    between atoms: O_25  and  C_67 
REMARK   24  A    between atoms: C_29  and  C_31 
REMARK   25  A    between atoms: C_30  and  C_32 
REMARK   26  A    between atoms: C_31  and  C_33 
REMARK   27  A    between atoms: C_33  and  C_37 
REMARK   28  A    between atoms: C_34  and  C_38 
REMARK   29  A    between atoms: C_35  and  C_39 
REMARK   30  A    between atoms: C_36  and  C_40 
REMARK   31  A    between atoms: C_41  and  C_44 
ROOT
HETATM    1  O   UNL     1      -1.339  -4.382 -13.693  1.00  0.00    -0.373 OA
HETATM    2  C   UNL     1       1.050  -5.735 -12.745  1.00  0.00     0.196 C 
HETATM    3  C   UNL     1      -0.304  -6.469 -12.754  1.00  0.00     0.193 C 
HETATM    4  C   UNL     1       0.967  -4.202 -12.848  1.00  0.00     0.195 C 
HETATM    5  C   UNL     1      -1.398  -5.805 -13.624  1.00  0.00     0.161 C 
HETATM    6  C   UNL     1      -0.086  -3.715 -13.850  1.00  0.00     0.178 C 
ENDROOT
BRANCH   5   7
HETATM    7  C   UNL     1      -1.555  -6.407 -15.026  1.00  0.00     0.118 C 
BRANCH   7   8
HETATM    8  C   UNL     1      -1.528  -7.925 -14.922  1.00  0.00     0.162 C 
HETATM    9  O   UNL     1      -0.505  -8.579 -14.748  1.00  0.00    -0.292 OA
BRANCH   8  10
HETATM   10  C   UNL     1      -2.817  -8.646 -14.917  1.00  0.00     0.015 C 
HETATM   11  C   UNL     1      -4.195  -8.090 -13.849  1.00  0.00     0.054 C 
HETATM   12  C   UNL     1      -5.570  -9.234 -13.541  1.00  0.00     0.102 C 
HETATM   13  C   UNL     1      -5.727 -10.783 -14.500  1.00  0.00     0.132 C 
HETATM   14  C   UNL     1      -4.456 -11.228 -15.719  1.00  0.00     0.102 C 
HETATM   15  C   UNL     1      -2.943 -10.233 -15.838  1.00  0.00     0.054 C 
BRANCH  12  16
HETATM   16  O   UNL     1      -6.509  -8.932 -12.601  1.00  0.00    -0.358 OA
HETATM   17  H   UNL     1      -7.285  -8.570 -13.059  1.00  0.00     0.217 HD
ENDBRANCH  12  16
BRANCH  13  18
HETATM   18  O   UNL     1      -6.766 -11.636 -14.285  1.00  0.00    -0.356 OA
HETATM   19  H   UNL     1      -7.197 -11.286 -13.483  1.00  0.00     0.218 HD
ENDBRANCH  13  18
BRANCH  14  20
HETATM   20  O   UNL     1      -4.578 -12.415 -16.377  1.00  0.00    -0.358 OA
HETATM   21  H   UNL     1      -3.679 -12.776 -16.460  1.00  0.00     0.217 HD
ENDBRANCH  14  20
ENDBRANCH   8  10
ENDBRANCH   7   8
ENDBRANCH   5   7
BRANCH   6  22
HETATM   22  C   UNL     1       0.483  -3.735 -15.287  1.00  0.00     0.213 C 
BRANCH  22  23
HETATM   23  O   UNL     1       0.841  -2.437 -15.791  1.00  0.00    -0.315 OA
BRANCH  23  24
HETATM   24  C   UNL     1       1.437  -1.392 -14.934  1.00  0.00     0.293 C 
HETATM   25  O   UNL     1       2.623  -1.814 -14.849  1.00  0.00    -0.259 OA
BRANCH  24  26
HETATM   26  C   UNL     1       0.399   0.307 -14.114  1.00  0.00     0.045 A 
HETATM   27  C   UNL     1      -1.042   0.816 -14.353  1.00  0.00     0.057 A 
HETATM   28  C   UNL     1      -1.720   1.943 -13.811  1.00  0.00     0.102 A 
HETATM   29  C   UNL     1      -1.108   2.764 -12.906  1.00  0.00     0.132 A 
HETATM   30  C   UNL     1       0.178   2.477 -12.547  1.00  0.00     0.102 A 
HETATM   31  C   UNL     1       0.864   1.362 -13.090  1.00  0.00     0.057 A 
BRANCH  28  32
HETATM   32  O   UNL     1      -3.006   2.251 -14.170  1.00  0.00    -0.358 OA
HETATM   33  H   UNL     1      -3.616   1.629 -13.731  1.00  0.00     0.217 HD
ENDBRANCH  28  32
BRANCH  29  34
HETATM   34  O   UNL     1      -1.746   3.842 -12.369  1.00  0.00    -0.356 OA
HETATM   35  H   UNL     1      -1.918   4.427 -13.135  1.00  0.00     0.218 HD
ENDBRANCH  29  34
BRANCH  30  36
HETATM   36  O   UNL     1       0.825   3.278 -11.646  1.00  0.00    -0.358 OA
HETATM   37  H   UNL     1       1.638   3.568 -12.106  1.00  0.00     0.217 HD
ENDBRANCH  30  36
ENDBRANCH  24  26
ENDBRANCH  23  24
ENDBRANCH  22  23
ENDBRANCH   6  22
BRANCH   3  38
HETATM   38  O   UNL     1      -0.766  -6.475 -11.376  1.00  0.00    -0.307 OA
BRANCH  38  39
HETATM   39  C   UNL     1      -1.225  -7.660 -10.911  1.00  0.00     0.294 C 
HETATM   40  O   UNL     1      -1.861  -8.498 -11.520  1.00  0.00    -0.259 OA
BRANCH  39  41
HETATM   41  C   UNL     1      -0.564  -7.884  -9.615  1.00  0.00     0.045 A 
HETATM   42  C   UNL     1       0.793  -7.583  -9.432  1.00  0.00     0.057 A 
HETATM   43  C   UNL     1       1.397  -7.932  -8.228  1.00  0.00     0.102 A 
HETATM   44  C   UNL     1       0.666  -8.588  -7.240  1.00  0.00     0.132 A 
HETATM   45  C   UNL     1      -0.680  -8.875  -7.433  1.00  0.00     0.102 A 
HETATM   46  C   UNL     1      -1.312  -8.514  -8.611  1.00  0.00     0.057 A 
BRANCH  43  47
HETATM   47  O   UNL     1       2.721  -7.679  -7.990  1.00  0.00    -0.358 OA
HETATM   48  H   UNL     1       2.818  -6.718  -7.853  1.00  0.00     0.217 HD
ENDBRANCH  43  47
BRANCH  44  49
HETATM   49  O   UNL     1       1.258  -8.973  -6.068  1.00  0.00    -0.356 OA
HETATM   50  H   UNL     1       2.052  -8.407  -5.989  1.00  0.00     0.218 HD
ENDBRANCH  44  49
BRANCH  45  51
HETATM   51  O   UNL     1      -1.385  -9.540  -6.474  1.00  0.00    -0.358 OA
HETATM   52  H   UNL     1      -1.139 -10.481  -6.585  1.00  0.00     0.217 HD
ENDBRANCH  45  51
ENDBRANCH  39  41
ENDBRANCH  38  39
ENDBRANCH   3  38
BRANCH   4  53
HETATM   53  O   UNL     1       0.935  -3.526 -11.561  1.00  0.00    -0.307 OA
BRANCH  53  54
HETATM   54  C   UNL     1       2.001  -2.938 -10.988  1.00  0.00     0.294 C 
HETATM   55  O   UNL     1       3.145  -3.349 -10.932  1.00  0.00    -0.259 OA
BRANCH  54  56
HETATM   56  C   UNL     1       1.590  -1.641 -10.392  1.00  0.00     0.045 A 
HETATM   57  C   UNL     1       0.261  -1.507  -9.956  1.00  0.00     0.057 A 
HETATM   58  C   UNL     1      -0.165  -0.299  -9.416  1.00  0.00     0.102 A 
HETATM   59  C   UNL     1       0.710   0.778  -9.340  1.00  0.00     0.132 A 
HETATM   60  C   UNL     1       2.019   0.650  -9.787  1.00  0.00     0.102 A 
HETATM   61  C   UNL     1       2.473  -0.553 -10.308  1.00  0.00     0.057 A 
BRANCH  58  62
HETATM   62  O   UNL     1      -1.438  -0.126  -8.949  1.00  0.00    -0.358 OA
HETATM   63  H   UNL     1      -1.383   0.143  -8.015  1.00  0.00     0.217 HD
ENDBRANCH  58  62
BRANCH  59  64
HETATM   64  O   UNL     1       0.296   1.980  -8.835  1.00  0.00    -0.356 OA
HETATM   65  H   UNL     1       0.086   2.516  -9.628  1.00  0.00     0.218 HD
ENDBRANCH  59  64
BRANCH  60  66
HETATM   66  O   UNL     1       2.871   1.714  -9.727  1.00  0.00    -0.358 OA
HETATM   67  H   UNL     1       3.606   1.482 -10.330  1.00  0.00     0.217 HD
ENDBRANCH  60  66
ENDBRANCH  54  56
ENDBRANCH  53  54
ENDBRANCH   4  53
BRANCH   2  68
HETATM   68  O   UNL     1       1.865  -6.175 -13.860  1.00  0.00    -0.307 OA
BRANCH  68  69
HETATM   69  C   UNL     1       3.011  -6.823 -13.539  1.00  0.00     0.294 C 
HETATM   70  O   UNL     1       4.069  -6.305 -13.234  1.00  0.00    -0.259 OA
BRANCH  69  71
HETATM   71  C   UNL     1       2.830  -8.288 -13.677  1.00  0.00     0.045 A 
HETATM   72  C   UNL     1       3.001  -8.866 -14.947  1.00  0.00     0.057 A 
HETATM   73  C   UNL     1       2.743 -10.222 -15.116  1.00  0.00     0.102 A 
HETATM   74  C   UNL     1       2.313 -10.993 -14.042  1.00  0.00     0.132 A 
HETATM   75  C   UNL     1       2.144 -10.418 -12.790  1.00  0.00     0.102 A 
HETATM   76  C   UNL     1       2.400  -9.070 -12.594  1.00  0.00     0.057 A 
BRANCH  73  77
HETATM   77  O   UNL     1       2.882 -10.842 -16.327  1.00  0.00    -0.358 OA
HETATM   78  H   UNL     1       2.671 -10.202 -17.030  1.00  0.00     0.217 HD
ENDBRANCH  73  77
BRANCH  74  79
HETATM   79  O   UNL     1       2.034 -12.322 -14.204  1.00  0.00    -0.356 OA
HETATM   80  H   UNL     1       2.848 -12.781 -13.909  1.00  0.00     0.218 HD
ENDBRANCH  74  79
BRANCH  75  81
HETATM   81  O   UNL     1       1.699 -11.170 -11.741  1.00  0.00    -0.358 OA
HETATM   82  H   UNL     1       1.965 -10.670 -10.943  1.00  0.00     0.217 HD
ENDBRANCH  75  81
ENDBRANCH  69  71
ENDBRANCH  68  69
ENDBRANCH   2  68
TORSDOF 31
ENDMDL
MODEL 4
REMARK VINA RESULT:      -5.5      2.404      9.725
REMARK  31 active torsions:
REMARK  status: ('A' for Active; 'I' for Inactive)
REMARK    1  A    between atoms: O_2  and  C_34 
REMARK    2  A    between atoms: O_2  and  C_26 
REMARK    3  A    between atoms: O_3  and  C_27 
REMARK    4  A    between atoms: O_3  and  C_35 
REMARK    5  A    between atoms: O_4  and  C_28 
REMARK    6  A    between atoms: O_4  and  C_36 
REMARK    7  A    between atoms: O_5  and  C_32 
REMARK    8  A    between atoms: O_5  and  C_41 
REMARK    9  A    between atoms: O_11  and  C_51 
REMARK   10  A    between atoms: O_12  and  C_52 
REMARK   11  A    between atoms: O_13  and  C_53 
REMARK   12  A    between atoms: O_14  and  C_54 
REMARK   13  A    between atoms: O_15  and  C_55 
REMARK   14  A    between atoms: O_16  and  C_56 
REMARK   15  A    between atoms: O_17  and  C_57 
REMARK   16  A    between atoms: O_18  and  C_58 
REMARK   17  A    between atoms: O_19  and  C_59 
REMARK   18  A    between atoms: O_20  and  C_62 
REMARK   19  A    between atoms: O_21  and  C_63 
REMARK   20  A    between atoms: O_22  and  C_64 
REMARK   21  A    between atoms: O_23  and  C_65 
REMARK   22  A    between atoms: O_24  and  C_66 
REMARK   23  A    between atoms: O_25  and  C_67 
REMARK   24  A    between atoms: C_29  and  C_31 
REMARK   25  A    between atoms: C_30  and  C_32 
REMARK   26  A    between atoms: C_31  and  C_33 
REMARK   27  A    between atoms: C_33  and  C_37 
REMARK   28  A    between atoms: C_34  and  C_38 
REMARK   29  A    between atoms: C_35  and  C_39 
REMARK   30  A    between atoms: C_36  and  C_40 
REMARK   31  A    between atoms: C_41  and  C_44 
ROOT
HETATM    1  O   UNL     1      -1.243  -4.504 -13.422  1.00  0.00    -0.373 OA
HETATM    2  C   UNL     1       1.050  -6.042 -12.521  1.00  0.00     0.196 C 
HETATM    3  C   UNL     1      -0.356  -6.669 -12.509  1.00  0.00     0.193 C 
HETATM    4  C   UNL     1       1.083  -4.506 -12.617  1.00  0.00     0.195 C 
HETATM    5  C   UNL     1      -1.411  -5.919 -13.357  1.00  0.00     0.161 C 
HETATM    6  C   UNL     1       0.054  -3.934 -13.598  1.00  0.00     0.178 C 
ENDROOT
BRANCH   5   7
HETATM    7  C   UNL     1      -1.638  -6.499 -14.759  1.00  0.00     0.118 C 
BRANCH   7   8
HETATM    8  C   UNL     1      -1.673  -8.017 -14.669  1.00  0.00     0.162 C 
HETATM    9  O   UNL     1      -0.704  -8.737 -14.893  1.00  0.00    -0.292 OA
BRANCH   8  10
HETATM   10  C   UNL     1      -2.908  -8.659 -14.178  1.00  0.00     0.015 C 
HETATM   11  C   UNL     1      -3.080 -10.481 -14.181  1.00  0.00     0.054 C 
HETATM   12  C   UNL     1      -4.738 -11.196 -13.996  1.00  0.00     0.102 C 
HETATM   13  C   UNL     1      -6.159 -10.147 -13.525  1.00  0.00     0.132 C 
HETATM   14  C   UNL     1      -5.935  -8.357 -13.315  1.00  0.00     0.102 C 
HETATM   15  C   UNL     1      -4.350  -7.594 -13.763  1.00  0.00     0.054 C 
BRANCH  12  16
HETATM   16  O   UNL     1      -4.928 -12.531 -14.190  1.00  0.00    -0.358 OA
HETATM   17  H   UNL     1      -5.502 -12.642 -14.965  1.00  0.00     0.217 HD
ENDBRANCH  12  16
BRANCH  13  18
HETATM   18  O   UNL     1      -7.401 -10.681 -13.369  1.00  0.00    -0.356 OA
HETATM   19  H   UNL     1      -7.244 -11.502 -12.865  1.00  0.00     0.218 HD
ENDBRANCH  13  18
BRANCH  14  20
HETATM   20  O   UNL     1      -7.027  -7.599 -13.015  1.00  0.00    -0.358 OA
HETATM   21  H   UNL     1      -6.733  -6.941 -12.363  1.00  0.00     0.217 HD
ENDBRANCH  14  20
ENDBRANCH   8  10
ENDBRANCH   7   8
ENDBRANCH   5   7
BRANCH   6  22
HETATM   22  C   UNL     1       0.595  -3.990 -15.045  1.00  0.00     0.213 C 
BRANCH  22  23
HETATM   23  O   UNL     1       0.771  -2.699 -15.653  1.00  0.00    -0.315 OA
BRANCH  23  24
HETATM   24  C   UNL     1       1.406  -1.570 -14.943  1.00  0.00     0.293 C 
HETATM   25  O   UNL     1       2.614  -1.931 -14.974  1.00  0.00    -0.259 OA
BRANCH  24  26
HETATM   26  C   UNL     1       0.382   0.134 -14.116  1.00  0.00     0.045 A 
HETATM   27  C   UNL     1       0.868   1.210 -13.116  1.00  0.00     0.057 A 
HETATM   28  C   UNL     1       0.184   2.331 -12.569  1.00  0.00     0.102 A 
HETATM   29  C   UNL     1      -1.103   2.615 -12.932  1.00  0.00     0.132 A 
HETATM   30  C   UNL     1      -1.716   1.785 -13.826  1.00  0.00     0.102 A 
HETATM   31  C   UNL     1      -1.045   0.659 -14.368  1.00  0.00     0.057 A 
BRANCH  28  32
HETATM   32  O   UNL     1       0.781   3.168 -11.663  1.00  0.00    -0.358 OA
HETATM   33  H   UNL     1       0.433   4.071 -11.787  1.00  0.00     0.217 HD
ENDBRANCH  28  32
BRANCH  29  34
HETATM   34  O   UNL     1      -1.770   3.691 -12.426  1.00  0.00    -0.356 OA
HETATM   35  H   UNL     1      -1.133   4.430 -12.509  1.00  0.00     0.218 HD
ENDBRANCH  29  34
BRANCH  30  36
HETATM   36  O   UNL     1      -3.005   2.036 -14.210  1.00  0.00    -0.358 OA
HETATM   37  H   UNL     1      -2.953   2.854 -14.744  1.00  0.00     0.217 HD
ENDBRANCH  30  36
ENDBRANCH  24  26
ENDBRANCH  23  24
ENDBRANCH  22  23
ENDBRANCH   6  22
BRANCH   3  38
HETATM   38  O   UNL     1      -0.793  -6.647 -11.124  1.00  0.00    -0.307 OA
BRANCH  38  39
HETATM   39  C   UNL     1      -1.299  -7.807 -10.644  1.00  0.00     0.294 C 
HETATM   40  O   UNL     1      -2.000  -8.608 -11.231  1.00  0.00    -0.259 OA
BRANCH  39  41
HETATM   41  C   UNL     1      -0.604  -8.071  -9.373  1.00  0.00     0.045 A 
HETATM   42  C   UNL     1       0.747  -7.739  -9.204  1.00  0.00     0.057 A 
HETATM   43  C   UNL     1       1.386  -8.124  -8.029  1.00  0.00     0.102 A 
HETATM   44  C   UNL     1       0.696  -8.846  -7.058  1.00  0.00     0.132 A 
HETATM   45  C   UNL     1      -0.645  -9.163  -7.237  1.00  0.00     0.102 A 
HETATM   46  C   UNL     1      -1.313  -8.768  -8.385  1.00  0.00     0.057 A 
BRANCH  43  47
HETATM   47  O   UNL     1       2.707  -7.844  -7.807  1.00  0.00    -0.358 OA
HETATM   48  H   UNL     1       2.962  -8.269  -6.967  1.00  0.00     0.217 HD
ENDBRANCH  43  47
BRANCH  44  49
HETATM   49  O   UNL     1       1.323  -9.266  -5.918  1.00  0.00    -0.356 OA
HETATM   50  H   UNL     1       0.750  -9.974  -5.561  1.00  0.00     0.218 HD
ENDBRANCH  44  49
BRANCH  45  51
HETATM   51  O   UNL     1      -1.311  -9.892  -6.296  1.00  0.00    -0.358 OA
HETATM   52  H   UNL     1      -0.782  -9.795  -5.479  1.00  0.00     0.217 HD
ENDBRANCH  45  51
ENDBRANCH  39  41
ENDBRANCH  38  39
ENDBRANCH   3  38
BRANCH   4  53
HETATM   53  O   UNL     1       1.126  -3.837 -11.327  1.00  0.00    -0.307 OA
BRANCH  53  54
HETATM   54  C   UNL     1       2.206  -3.199 -10.840  1.00  0.00     0.294 C 
HETATM   55  O   UNL     1       3.359  -3.586 -10.816  1.00  0.00    -0.259 OA
BRANCH  54  56
HETATM   56  C   UNL     1       1.797  -1.877 -10.300  1.00  0.00     0.045 A 
HETATM   57  C   UNL     1       0.519  -1.764  -9.729  1.00  0.00     0.057 A 
HETATM   58  C   UNL     1       0.094  -0.535  -9.236  1.00  0.00     0.102 A 
HETATM   59  C   UNL     1       0.917   0.580  -9.338  1.00  0.00     0.132 A 
HETATM   60  C   UNL     1       2.176   0.471  -9.917  1.00  0.00     0.102 A 
HETATM   61  C   UNL     1       2.630  -0.750 -10.395  1.00  0.00     0.057 A 
BRANCH  58  62
HETATM   62  O   UNL     1      -1.128  -0.378  -8.644  1.00  0.00    -0.358 OA
HETATM   63  H   UNL     1      -1.554   0.407  -9.033  1.00  0.00     0.217 HD
ENDBRANCH  58  62
BRANCH  59  64
HETATM   64  O   UNL     1       0.501   1.800  -8.880  1.00  0.00    -0.356 OA
HETATM   65  H   UNL     1       0.026   1.597  -8.048  1.00  0.00     0.218 HD
ENDBRANCH  59  64
BRANCH  60  66
HETATM   66  O   UNL     1       2.975   1.570 -10.031  1.00  0.00    -0.358 OA
HETATM   67  H   UNL     1       2.402   2.323  -9.778  1.00  0.00     0.217 HD
ENDBRANCH  60  66
ENDBRANCH  54  56
ENDBRANCH  53  54
ENDBRANCH   4  53
BRANCH   2  68
HETATM   68  O   UNL     1       1.809  -6.538 -13.653  1.00  0.00    -0.307 OA
BRANCH  68  69
HETATM   69  C   UNL     1       3.114  -6.816 -13.416  1.00  0.00     0.294 C 
HETATM   70  O   UNL     1       4.063  -6.103 -13.685  1.00  0.00    -0.259 OA
BRANCH  69  71
HETATM   71  C   UNL     1       3.252  -8.172 -12.832  1.00  0.00     0.045 A 
HETATM   72  C   UNL     1       3.541  -8.284 -11.461  1.00  0.00     0.057 A 
HETATM   73  C   UNL     1       3.767  -9.543 -10.915  1.00  0.00     0.102 A 
HETATM   74  C   UNL     1       3.717 -10.676 -11.720  1.00  0.00     0.132 A 
HETATM   75  C   UNL     1       3.433 -10.561 -13.074  1.00  0.00     0.102 A 
HETATM   76  C   UNL     1       3.198  -9.318 -13.641  1.00  0.00     0.057 A 
BRANCH  73  77
HETATM   77  O   UNL     1       4.061  -9.718  -9.592  1.00  0.00    -0.358 OA
HETATM   78  H   UNL     1       4.149 -10.672  -9.416  1.00  0.00     0.217 HD
ENDBRANCH  73  77
BRANCH  74  79
HETATM   79  O   UNL     1       3.962 -11.916 -11.197  1.00  0.00    -0.356 OA
HETATM   80  H   UNL     1       4.938 -11.991 -11.192  1.00  0.00     0.218 HD
ENDBRANCH  74  79
BRANCH  75  81
HETATM   81  O   UNL     1       3.406 -11.670 -13.868  1.00  0.00    -0.358 OA
HETATM   82  H   UNL     1       3.092 -11.349 -14.738  1.00  0.00     0.217 HD
ENDBRANCH  75  81
ENDBRANCH  69  71
ENDBRANCH  68  69
ENDBRANCH   2  68
TORSDOF 31
ENDMDL
MODEL 5
REMARK VINA RESULT:      -5.1      2.321      9.376
REMARK  31 active torsions:
REMARK  status: ('A' for Active; 'I' for Inactive)
REMARK    1  A    between atoms: O_2  and  C_34 
REMARK    2  A    between atoms: O_2  and  C_26 
REMARK    3  A    between atoms: O_3  and  C_27 
REMARK    4  A    between atoms: O_3  and  C_35 
REMARK    5  A    between atoms: O_4  and  C_28 
REMARK    6  A    between atoms: O_4  and  C_36 
REMARK    7  A    between atoms: O_5  and  C_32 
REMARK    8  A    between atoms: O_5  and  C_41 
REMARK    9  A    between atoms: O_11  and  C_51 
REMARK   10  A    between atoms: O_12  and  C_52 
REMARK   11  A    between atoms: O_13  and  C_53 
REMARK   12  A    between atoms: O_14  and  C_54 
REMARK   13  A    between atoms: O_15  and  C_55 
REMARK   14  A    between atoms: O_16  and  C_56 
REMARK   15  A    between atoms: O_17  and  C_57 
REMARK   16  A    between atoms: O_18  and  C_58 
REMARK   17  A    between atoms: O_19  and  C_59 
REMARK   18  A    between atoms: O_20  and  C_62 
REMARK   19  A    between atoms: O_21  and  C_63 
REMARK   20  A    between atoms: O_22  and  C_64 
REMARK   21  A    between atoms: O_23  and  C_65 
REMARK   22  A    between atoms: O_24  and  C_66 
REMARK   23  A    between atoms: O_25  and  C_67 
REMARK   24  A    between atoms: C_29  and  C_31 
REMARK   25  A    between atoms: C_30  and  C_32 
REMARK   26  A    between atoms: C_31  and  C_33 
REMARK   27  A    between atoms: C_33  and  C_37 
REMARK   28  A    between atoms: C_34  and  C_38 
REMARK   29  A    between atoms: C_35  and  C_39 
REMARK   30  A    between atoms: C_36  and  C_40 
REMARK   31  A    between atoms: C_41  and  C_44 
ROOT
HETATM    1  O   UNL     1      -0.842  -5.035 -13.442  1.00  0.00    -0.373 OA
HETATM    2  C   UNL     1       1.171  -7.119 -13.245  1.00  0.00     0.196 C 
HETATM    3  C   UNL     1      -0.323  -7.488 -13.293  1.00  0.00     0.193 C 
HETATM    4  C   UNL     1       1.475  -5.653 -12.887  1.00  0.00     0.195 C 
HETATM    5  C   UNL     1      -1.258  -6.356 -13.783  1.00  0.00     0.161 C 
HETATM    6  C   UNL     1       0.529  -4.653 -13.559  1.00  0.00     0.178 C 
ENDROOT
BRANCH   5   7
HETATM    7  C   UNL     1      -1.638  -6.435 -15.267  1.00  0.00     0.118 C 
BRANCH   7   8
HETATM    8  C   UNL     1      -1.665  -7.895 -15.696  1.00  0.00     0.162 C 
HETATM    9  O   UNL     1      -0.707  -8.479 -16.192  1.00  0.00    -0.292 OA
BRANCH   8  10
HETATM   10  C   UNL     1      -2.875  -8.687 -15.397  1.00  0.00     0.015 C 
HETATM   11  C   UNL     1      -4.515  -7.884 -15.289  1.00  0.00     0.054 C 
HETATM   12  C   UNL     1      -5.875  -8.789 -14.498  1.00  0.00     0.102 C 
HETATM   13  C   UNL     1      -5.698 -10.561 -14.084  1.00  0.00     0.132 C 
HETATM   14  C   UNL     1      -4.124 -11.413 -14.392  1.00  0.00     0.102 C 
HETATM   15  C   UNL     1      -2.678 -10.454 -14.925  1.00  0.00     0.054 C 
BRANCH  12  16
HETATM   16  O   UNL     1      -7.047  -8.152 -14.224  1.00  0.00    -0.358 OA
HETATM   17  H   UNL     1      -7.768  -8.795 -14.324  1.00  0.00     0.217 HD
ENDBRANCH  12  16
BRANCH  13  18
HETATM   18  O   UNL     1      -6.721 -11.249 -13.506  1.00  0.00    -0.356 OA
HETATM   19  H   UNL     1      -6.996 -10.683 -12.760  1.00  0.00     0.218 HD
ENDBRANCH  13  18
BRANCH  14  20
HETATM   20  O   UNL     1      -4.012 -12.719 -14.023  1.00  0.00    -0.358 OA
HETATM   21  H   UNL     1      -4.400 -13.242 -14.745  1.00  0.00     0.217 HD
ENDBRANCH  14  20
ENDBRANCH   8  10
ENDBRANCH   7   8
ENDBRANCH   5   7
BRANCH   6  22
HETATM   22  C   UNL     1       0.995  -4.348 -15.001  1.00  0.00     0.213 C 
BRANCH  22  23
HETATM   23  O   UNL     1       0.548  -3.078 -15.503  1.00  0.00    -0.315 OA
BRANCH  23  24
HETATM   24  C   UNL     1       1.166  -1.801 -15.090  1.00  0.00     0.293 C 
HETATM   25  O   UNL     1       1.973  -1.619 -16.043  1.00  0.00    -0.259 OA
BRANCH  24  26
HETATM   26  C   UNL     1       0.712  -0.703 -13.295  1.00  0.00     0.045 A 
HETATM   27  C   UNL     1       1.277  -0.844 -11.861  1.00  0.00     0.057 A 
HETATM   28  C   UNL     1       0.968  -0.118 -10.677  1.00  0.00     0.102 A 
HETATM   29  C   UNL     1       0.062   0.905 -10.695  1.00  0.00     0.132 A 
HETATM   30  C   UNL     1      -0.547   1.201 -11.881  1.00  0.00     0.102 A 
HETATM   31  C   UNL     1      -0.253   0.476 -13.063  1.00  0.00     0.057 A 
BRANCH  28  32
HETATM   32  O   UNL     1       1.562  -0.411  -9.477  1.00  0.00    -0.358 OA
HETATM   33  H   UNL     1       1.157  -1.219  -9.111  1.00  0.00     0.217 HD
ENDBRANCH  28  32
BRANCH  29  34
HETATM   34  O   UNL     1      -0.238   1.618  -9.573  1.00  0.00    -0.356 OA
HETATM   35  H   UNL     1      -0.432   2.518  -9.903  1.00  0.00     0.218 HD
ENDBRANCH  29  34
BRANCH  30  36
HETATM   36  O   UNL     1      -1.462   2.217 -11.937  1.00  0.00    -0.358 OA
HETATM   37  H   UNL     1      -0.999   2.994 -11.563  1.00  0.00     0.217 HD
ENDBRANCH  30  36
ENDBRANCH  24  26
ENDBRANCH  23  24
ENDBRANCH  22  23
ENDBRANCH   6  22
BRANCH   3  38
HETATM   38  O   UNL     1      -0.696  -7.821 -11.929  1.00  0.00    -0.307 OA
BRANCH  38  39
HETATM   39  C   UNL     1      -0.555  -9.121 -11.578  1.00  0.00     0.294 C 
HETATM   40  O   UNL     1      -0.504 -10.086 -12.316  1.00  0.00    -0.259 OA
BRANCH  39  41
HETATM   41  C   UNL     1      -0.182  -9.131 -10.153  1.00  0.00     0.045 A 
HETATM   42  C   UNL     1      -1.156  -9.056  -9.149  1.00  0.00     0.057 A 
HETATM   43  C   UNL     1      -0.742  -8.942  -7.826  1.00  0.00     0.102 A 
HETATM   44  C   UNL     1       0.616  -8.881  -7.517  1.00  0.00     0.132 A 
HETATM   45  C   UNL     1       1.571  -8.962  -8.524  1.00  0.00     0.102 A 
HETATM   46  C   UNL     1       1.185  -9.104  -9.847  1.00  0.00     0.057 A 
BRANCH  43  47
HETATM   47  O   UNL     1      -1.641  -8.851  -6.798  1.00  0.00    -0.358 OA
HETATM   48  H   UNL     1      -1.605  -7.939  -6.454  1.00  0.00     0.217 HD
ENDBRANCH  43  47
BRANCH  44  49
HETATM   49  O   UNL     1       1.036  -8.727  -6.225  1.00  0.00    -0.356 OA
HETATM   50  H   UNL     1       1.333  -7.798  -6.164  1.00  0.00     0.218 HD
ENDBRANCH  44  49
BRANCH  45  51
HETATM   51  O   UNL     1       2.897  -8.875  -8.221  1.00  0.00    -0.358 OA
HETATM   52  H   UNL     1       3.361  -8.988  -9.076  1.00  0.00     0.217 HD
ENDBRANCH  45  51
ENDBRANCH  39  41
ENDBRANCH  38  39
ENDBRANCH   3  38
BRANCH   4  53
HETATM   53  O   UNL     1       1.685  -5.426 -11.466  1.00  0.00    -0.307 OA
BRANCH  53  54
HETATM   54  C   UNL     1       2.879  -5.526 -10.851  1.00  0.00     0.294 C 
HETATM   55  O   UNL     1       3.884  -6.084 -11.250  1.00  0.00    -0.259 OA
BRANCH  54  56
HETATM   56  C   UNL     1       2.820  -4.827  -9.542  1.00  0.00     0.045 A 
HETATM   57  C   UNL     1       2.021  -5.385  -8.531  1.00  0.00     0.057 A 
HETATM   58  C   UNL     1       1.924  -4.743  -7.301  1.00  0.00     0.102 A 
HETATM   59  C   UNL     1       2.587  -3.541  -7.088  1.00  0.00     0.132 A 
HETATM   60  C   UNL     1       3.364  -2.981  -8.094  1.00  0.00     0.102 A 
HETATM   61  C   UNL     1       3.494  -3.615  -9.321  1.00  0.00     0.057 A 
BRANCH  58  62
HETATM   62  O   UNL     1       1.184  -5.260  -6.274  1.00  0.00    -0.358 OA
HETATM   63  H   UNL     1       0.984  -4.538  -5.653  1.00  0.00     0.217 HD
ENDBRANCH  58  62
BRANCH  59  64
HETATM   64  O   UNL     1       2.478  -2.887  -5.891  1.00  0.00    -0.356 OA
HETATM   65  H   UNL     1       1.949  -2.089  -6.099  1.00  0.00     0.218 HD
ENDBRANCH  59  64
BRANCH  60  66
HETATM   66  O   UNL     1       4.000  -1.792  -7.887  1.00  0.00    -0.358 OA
HETATM   67  H   UNL     1       4.266  -1.491  -8.780  1.00  0.00     0.217 HD
ENDBRANCH  60  66
ENDBRANCH  54  56
ENDBRANCH  53  54
ENDBRANCH   4  53
BRANCH   2  68
HETATM   68  O   UNL     1       1.787  -7.358 -14.536  1.00  0.00    -0.307 OA
BRANCH  68  69
HETATM   69  C   UNL     1       3.043  -7.864 -14.510  1.00  0.00     0.294 C 
HETATM   70  O   UNL     1       4.028  -7.374 -15.032  1.00  0.00    -0.259 OA
BRANCH  69  71
HETATM   71  C   UNL     1       3.058  -9.168 -13.804  1.00  0.00     0.045 A 
HETATM   72  C   UNL     1       2.395 -10.256 -14.396  1.00  0.00     0.057 A 
HETATM   73  C   UNL     1       2.316 -11.461 -13.705  1.00  0.00     0.102 A 
HETATM   74  C   UNL     1       2.881 -11.582 -12.441  1.00  0.00     0.132 A 
HETATM   75  C   UNL     1       3.534 -10.504 -11.859  1.00  0.00     0.102 A 
HETATM   76  C   UNL     1       3.631  -9.295 -12.529  1.00  0.00     0.057 A 
BRANCH  73  77
HETATM   77  O   UNL     1       1.678 -12.554 -14.222  1.00  0.00    -0.358 OA
HETATM   78  H   UNL     1       0.746 -12.322 -14.384  1.00  0.00     0.217 HD
ENDBRANCH  73  77
BRANCH  74  79
HETATM   79  O   UNL     1       2.789 -12.755 -11.743  1.00  0.00    -0.356 OA
HETATM   80  H   UNL     1       2.286 -13.352 -12.334  1.00  0.00     0.218 HD
ENDBRANCH  74  79
BRANCH  75  81
HETATM   81  O   UNL     1       4.068 -10.615 -10.608  1.00  0.00    -0.358 OA
HETATM   82  H   UNL     1       5.032 -10.703 -10.753  1.00  0.00     0.217 HD
ENDBRANCH  75  81
ENDBRANCH  69  71
ENDBRANCH  68  69
ENDBRANCH   2  68
TORSDOF 31
ENDMDL
MODEL 6
REMARK VINA RESULT:      -5.0      3.790     11.025
REMARK  31 active torsions:
REMARK  status: ('A' for Active; 'I' for Inactive)
REMARK    1  A    between atoms: O_2  and  C_34 
REMARK    2  A    between atoms: O_2  and  C_26 
REMARK    3  A    between atoms: O_3  and  C_27 
REMARK    4  A    between atoms: O_3  and  C_35 
REMARK    5  A    between atoms: O_4  and  C_28 
REMARK    6  A    between atoms: O_4  and  C_36 
REMARK    7  A    between atoms: O_5  and  C_32 
REMARK    8  A    between atoms: O_5  and  C_41 
REMARK    9  A    between atoms: O_11  and  C_51 
REMARK   10  A    between atoms: O_12  and  C_52 
REMARK   11  A    between atoms: O_13  and  C_53 
REMARK   12  A    between atoms: O_14  and  C_54 
REMARK   13  A    between atoms: O_15  and  C_55 
REMARK   14  A    between atoms: O_16  and  C_56 
REMARK   15  A    between atoms: O_17  and  C_57 
REMARK   16  A    between atoms: O_18  and  C_58 
REMARK   17  A    between atoms: O_19  and  C_59 
REMARK   18  A    between atoms: O_20  and  C_62 
REMARK   19  A    between atoms: O_21  and  C_63 
REMARK   20  A    between atoms: O_22  and  C_64 
REMARK   21  A    between atoms: O_23  and  C_65 
REMARK   22  A    between atoms: O_24  and  C_66 
REMARK   23  A    between atoms: O_25  and  C_67 
REMARK   24  A    between atoms: C_29  and  C_31 
REMARK   25  A    between atoms: C_30  and  C_32 
REMARK   26  A    between atoms: C_31  and  C_33 
REMARK   27  A    between atoms: C_33  and  C_37 
REMARK   28  A    between atoms: C_34  and  C_38 
REMARK   29  A    between atoms: C_35  and  C_39 
REMARK   30  A    between atoms: C_36  and  C_40 
REMARK   31  A    between atoms: C_41  and  C_44 
ROOT
HETATM    1  O   UNL     1      -1.859  -6.930 -11.803  1.00  0.00    -0.373 OA
HETATM    2  C   UNL     1      -0.670  -9.081 -13.350  1.00  0.00     0.196 C 
HETATM    3  C   UNL     1      -0.047  -8.657 -12.008  1.00  0.00     0.193 C 
HETATM    4  C   UNL     1      -1.635  -8.060 -13.979  1.00  0.00     0.195 C 
HETATM    5  C   UNL     1      -0.965  -7.796 -11.107  1.00  0.00     0.161 C 
HETATM    6  C   UNL     1      -2.561  -7.389 -12.958  1.00  0.00     0.178 C 
ENDROOT
BRANCH   5   7
HETATM    7  C   UNL     1      -1.710  -8.577 -10.017  1.00  0.00     0.118 C 
BRANCH   7   8
HETATM    8  C   UNL     1      -0.995  -8.383  -8.688  1.00  0.00     0.162 C 
HETATM    9  O   UNL     1      -1.187  -7.427  -7.943  1.00  0.00    -0.292 OA
BRANCH   8  10
HETATM   10  C   UNL     1      -0.101  -9.458  -8.213  1.00  0.00     0.015 C 
HETATM   11  C   UNL     1       0.362  -9.576  -6.447  1.00  0.00     0.054 C 
HETATM   12  C   UNL     1       1.780 -10.612  -5.989  1.00  0.00     0.102 C 
HETATM   13  C   UNL     1       2.545 -11.738  -7.210  1.00  0.00     0.132 C 
HETATM   14  C   UNL     1       1.937 -11.770  -8.921  1.00  0.00     0.102 C 
HETATM   15  C   UNL     1       0.707 -10.546  -9.456  1.00  0.00     0.054 C 
BRANCH  12  16
HETATM   16  O   UNL     1       2.273 -10.568  -4.720  1.00  0.00    -0.358 OA
HETATM   17  H   UNL     1       1.610 -10.138  -4.156  1.00  0.00     0.217 HD
ENDBRANCH  12  16
BRANCH  13  18
HETATM   18  O   UNL     1       3.599 -12.529  -6.867  1.00  0.00    -0.356 OA
HETATM   19  H   UNL     1       3.193 -13.397  -6.684  1.00  0.00     0.218 HD
ENDBRANCH  13  18
BRANCH  14  20
HETATM   20  O   UNL     1       2.565 -12.582  -9.816  1.00  0.00    -0.358 OA
HETATM   21  H   UNL     1       2.282 -12.289 -10.698  1.00  0.00     0.217 HD
ENDBRANCH  14  20
ENDBRANCH   8  10
ENDBRANCH   7   8
ENDBRANCH   5   7
BRANCH   6  22
HETATM   22  C   UNL     1      -3.782  -8.289 -12.660  1.00  0.00     0.213 C 
BRANCH  22  23
HETATM   23  O   UNL     1      -4.686  -8.432 -13.768  1.00  0.00    -0.315 OA
BRANCH  23  24
HETATM   24  C   UNL     1      -6.118  -8.080 -13.673  1.00  0.00     0.293 C 
HETATM   25  O   UNL     1      -6.145  -7.040 -14.386  1.00  0.00    -0.259 OA
BRANCH  24  26
HETATM   26  C   UNL     1      -7.607  -9.151 -12.546  1.00  0.00     0.045 A 
HETATM   27  C   UNL     1      -9.145  -9.199 -12.704  1.00  0.00     0.057 A 
HETATM   28  C   UNL     1     -10.124  -9.905 -11.952  1.00  0.00     0.102 A 
HETATM   29  C   UNL     1      -9.762 -10.723 -10.918  1.00  0.00     0.132 A 
HETATM   30  C   UNL     1      -8.434 -10.832 -10.622  1.00  0.00     0.102 A 
HETATM   31  C   UNL     1      -7.452 -10.123 -11.360  1.00  0.00     0.057 A 
BRANCH  28  32
HETATM   32  O   UNL     1     -11.462  -9.798 -12.229  1.00  0.00    -0.358 OA
HETATM   33  H   UNL     1     -11.968 -10.263 -11.537  1.00  0.00     0.217 HD
ENDBRANCH  28  32
BRANCH  29  34
HETATM   34  O   UNL     1     -10.686 -11.416 -10.194  1.00  0.00    -0.356 OA
HETATM   35  H   UNL     1     -10.246 -12.267  -9.992  1.00  0.00     0.218 HD
ENDBRANCH  29  34
BRANCH  30  36
HETATM   36  O   UNL     1      -8.033 -11.639  -9.592  1.00  0.00    -0.358 OA
HETATM   37  H   UNL     1      -7.614 -11.035  -8.947  1.00  0.00     0.217 HD
ENDBRANCH  30  36
ENDBRANCH  24  26
ENDBRANCH  23  24
ENDBRANCH  22  23
ENDBRANCH   6  22
BRANCH   3  38
HETATM   38  O   UNL     1       1.125  -7.867 -12.342  1.00  0.00    -0.307 OA
BRANCH  38  39
HETATM   39  C   UNL     1       2.195  -8.020 -11.527  1.00  0.00     0.294 C 
HETATM   40  O   UNL     1       3.050  -8.881 -11.582  1.00  0.00    -0.259 OA
BRANCH  39  41
HETATM   41  C   UNL     1       2.299  -6.781 -10.737  1.00  0.00     0.045 A 
HETATM   42  C   UNL     1       2.156  -5.524 -11.340  1.00  0.00     0.057 A 
HETATM   43  C   UNL     1       2.388  -4.387 -10.572  1.00  0.00     0.102 A 
HETATM   44  C   UNL     1       2.777  -4.505  -9.240  1.00  0.00     0.132 A 
HETATM   45  C   UNL     1       2.909  -5.759  -8.654  1.00  0.00     0.102 A 
HETATM   46  C   UNL     1       2.657  -6.907  -9.388  1.00  0.00     0.057 A 
BRANCH  43  47
HETATM   47  O   UNL     1       2.280  -3.130 -11.103  1.00  0.00    -0.358 OA
HETATM   48  H   UNL     1       2.577  -3.174 -12.031  1.00  0.00     0.217 HD
ENDBRANCH  43  47
BRANCH  44  49
HETATM   49  O   UNL     1       3.048  -3.397  -8.486  1.00  0.00    -0.356 OA
HETATM   50  H   UNL     1       3.820  -2.980  -8.919  1.00  0.00     0.218 HD
ENDBRANCH  44  49
BRANCH  45  51
HETATM   51  O   UNL     1       3.315  -5.872  -7.358  1.00  0.00    -0.358 OA
HETATM   52  H   UNL     1       2.496  -6.048  -6.850  1.00  0.00     0.217 HD
ENDBRANCH  45  51
ENDBRANCH  39  41
ENDBRANCH  38  39
ENDBRANCH   3  38
BRANCH   4  53
HETATM   53  O   UNL     1      -0.997  -7.144 -14.910  1.00  0.00    -0.307 OA
BRANCH  53  54
HETATM   54  C   UNL     1      -1.650  -6.193 -15.604  1.00  0.00     0.294 C 
HETATM   55  O   UNL     1      -2.658  -6.312 -16.275  1.00  0.00    -0.259 OA
BRANCH  54  56
HETATM   56  C   UNL     1      -0.948  -4.894 -15.442  1.00  0.00     0.045 A 
HETATM   57  C   UNL     1       0.315  -4.898 -14.828  1.00  0.00     0.057 A 
HETATM   58  C   UNL     1       0.990  -3.697 -14.638  1.00  0.00     0.102 A 
HETATM   59  C   UNL     1       0.402  -2.499 -15.023  1.00  0.00     0.132 A 
HETATM   60  C   UNL     1      -0.854  -2.494 -15.616  1.00  0.00     0.102 A 
HETATM   61  C   UNL     1      -1.536  -3.682 -15.837  1.00  0.00     0.057 A 
BRANCH  58  62
HETATM   62  O   UNL     1       2.234  -3.650 -14.073  1.00  0.00    -0.358 OA
HETATM   63  H   UNL     1       2.208  -4.155 -13.241  1.00  0.00     0.217 HD
ENDBRANCH  58  62
BRANCH  59  64
HETATM   64  O   UNL     1       1.045  -1.308 -14.818  1.00  0.00    -0.356 OA
HETATM   65  H   UNL     1       1.924  -1.565 -14.470  1.00  0.00     0.218 HD
ENDBRANCH  59  64
BRANCH  60  66
HETATM   66  O   UNL     1      -1.436  -1.314 -15.978  1.00  0.00    -0.358 OA
HETATM   67  H   UNL     1      -2.399  -1.487 -15.939  1.00  0.00     0.217 HD
ENDBRANCH  60  66
ENDBRANCH  54  56
ENDBRANCH  53  54
ENDBRANCH   4  53
BRANCH   2  68
HETATM   68  O   UNL     1      -1.426 -10.308 -13.185  1.00  0.00    -0.307 OA
BRANCH  68  69
HETATM   69  C   UNL     1      -1.759 -10.958 -14.326  1.00  0.00     0.294 C 
HETATM   70  O   UNL     1      -1.044 -11.118 -15.298  1.00  0.00    -0.259 OA
BRANCH  69  71
HETATM   71  C   UNL     1      -3.171 -11.405 -14.270  1.00  0.00     0.045 A 
HETATM   72  C   UNL     1      -3.989 -11.183 -15.391  1.00  0.00     0.057 A 
HETATM   73  C   UNL     1      -5.339 -11.509 -15.323  1.00  0.00     0.102 A 
HETATM   74  C   UNL     1      -5.874 -12.040 -14.155  1.00  0.00     0.132 A 
HETATM   75  C   UNL     1      -5.064 -12.256 -13.049  1.00  0.00     0.102 A 
HETATM   76  C   UNL     1      -3.714 -11.945 -13.093  1.00  0.00     0.057 A 
BRANCH  73  77
HETATM   77  O   UNL     1      -6.188 -11.309 -16.376  1.00  0.00    -0.358 OA
HETATM   78  H   UNL     1      -6.325 -12.160 -16.830  1.00  0.00     0.217 HD
ENDBRANCH  73  77
BRANCH  74  79
HETATM   79  O   UNL     1      -7.205 -12.342 -14.070  1.00  0.00    -0.356 OA
HETATM   80  H   UNL     1      -7.409 -12.790 -14.917  1.00  0.00     0.218 HD
ENDBRANCH  74  79
BRANCH  75  81
HETATM   81  O   UNL     1      -5.593 -12.756 -11.894  1.00  0.00    -0.358 OA
HETATM   82  H   UNL     1      -6.555 -12.814 -12.062  1.00  0.00     0.217 HD
ENDBRANCH  75  81
ENDBRANCH  69  71
ENDBRANCH  68  69
ENDBRANCH   2  68
TORSDOF 31
ENDMDL
MODEL 7
REMARK VINA RESULT:      -4.6      1.994      9.530
REMARK  31 active torsions:
REMARK  status: ('A' for Active; 'I' for Inactive)
REMARK    1  A    between atoms: O_2  and  C_34 
REMARK    2  A    between atoms: O_2  and  C_26 
REMARK    3  A    between atoms: O_3  and  C_27 
REMARK    4  A    between atoms: O_3  and  C_35 
REMARK    5  A    between atoms: O_4  and  C_28 
REMARK    6  A    between atoms: O_4  and  C_36 
REMARK    7  A    between atoms: O_5  and  C_32 
REMARK    8  A    between atoms: O_5  and  C_41 
REMARK    9  A    between atoms: O_11  and  C_51 
REMARK   10  A    between atoms: O_12  and  C_52 
REMARK   11  A    between atoms: O_13  and  C_53 
REMARK   12  A    between atoms: O_14  and  C_54 
REMARK   13  A    between atoms: O_15  and  C_55 
REMARK   14  A    between atoms: O_16  and  C_56 
REMARK   15  A    between atoms: O_17  and  C_57 
REMARK   16  A    between atoms: O_18  and  C_58 
REMARK   17  A    between atoms: O_19  and  C_59 
REMARK   18  A    between atoms: O_20  and  C_62 
REMARK   19  A    between atoms: O_21  and  C_63 
REMARK   20  A    between atoms: O_22  and  C_64 
REMARK   21  A    between atoms: O_23  and  C_65 
REMARK   22  A    between atoms: O_24  and  C_66 
REMARK   23  A    between atoms: O_25  and  C_67 
REMARK   24  A    between atoms: C_29  and  C_31 
REMARK   25  A    between atoms: C_30  and  C_32 
REMARK   26  A    between atoms: C_31  and  C_33 
REMARK   27  A    between atoms: C_33  and  C_37 
REMARK   28  A    between atoms: C_34  and  C_38 
REMARK   29  A    between atoms: C_35  and  C_39 
REMARK   30  A    between atoms: C_36  and  C_40 
REMARK   31  A    between atoms: C_41  and  C_44 
ROOT
HETATM    1  O   UNL     1       2.835  -2.029 -10.624  1.00  0.00    -0.373 OA
HETATM    2  C   UNL     1       0.313  -1.931 -12.064  1.00  0.00     0.196 C 
HETATM    3  C   UNL     1       1.644  -2.000 -12.836  1.00  0.00     0.193 C 
HETATM    4  C   UNL     1       0.430  -1.500 -10.590  1.00  0.00     0.195 C 
HETATM    5  C   UNL     1       2.866  -2.435 -11.991  1.00  0.00     0.161 C 
HETATM    6  C   UNL     1       1.628  -2.123  -9.866  1.00  0.00     0.178 C 
ENDROOT
BRANCH   5   7
HETATM    7  C   UNL     1       3.225  -3.922 -12.103  1.00  0.00     0.118 C 
BRANCH   7   8
HETATM    8  C   UNL     1       3.776  -4.402 -10.768  1.00  0.00     0.162 C 
HETATM    9  O   UNL     1       4.069  -3.653  -9.841  1.00  0.00    -0.292 OA
BRANCH   8  10
HETATM   10  C   UNL     1       3.857  -5.857 -10.531  1.00  0.00     0.015 C 
HETATM   11  C   UNL     1       3.586  -7.044 -11.897  1.00  0.00     0.054 C 
HETATM   12  C   UNL     1       3.259  -8.781 -11.485  1.00  0.00     0.102 C 
HETATM   13  C   UNL     1       3.483  -9.392  -9.776  1.00  0.00     0.132 C 
HETATM   14  C   UNL     1       3.962  -8.241  -8.456  1.00  0.00     0.102 C 
HETATM   15  C   UNL     1       4.025  -6.460  -8.801  1.00  0.00     0.054 C 
BRANCH  12  16
HETATM   16  O   UNL     1       2.860  -9.647 -12.458  1.00  0.00    -0.358 OA
HETATM   17  H   UNL     1       3.093  -9.260 -13.317  1.00  0.00     0.217 HD
ENDBRANCH  12  16
BRANCH  13  18
HETATM   18  O   UNL     1       3.255 -10.698  -9.466  1.00  0.00    -0.356 OA
HETATM   19  H   UNL     1       4.053 -11.160  -9.785  1.00  0.00     0.218 HD
ENDBRANCH  13  18
BRANCH  14  20
HETATM   20  O   UNL     1       4.069  -8.722  -7.186  1.00  0.00    -0.358 OA
HETATM   21  H   UNL     1       3.347  -8.316  -6.678  1.00  0.00     0.217 HD
ENDBRANCH  14  20
ENDBRANCH   8  10
ENDBRANCH   7   8
ENDBRANCH   5   7
BRANCH   6  22
HETATM   22  C   UNL     1       1.284  -3.547  -9.374  1.00  0.00     0.213 C 
BRANCH  22  23
HETATM   23  O   UNL     1       1.227  -3.672  -7.943  1.00  0.00    -0.315 OA
BRANCH  23  24
HETATM   24  C   UNL     1       1.489  -4.949  -7.248  1.00  0.00     0.293 C 
HETATM   25  O   UNL     1       2.384  -4.588  -6.435  1.00  0.00    -0.259 OA
BRANCH  24  26
HETATM   26  C   UNL     1       0.530  -6.831  -7.666  1.00  0.00     0.045 A 
HETATM   27  C   UNL     1      -0.367  -7.722  -6.774  1.00  0.00     0.057 A 
HETATM   28  C   UNL     1      -0.993  -8.967  -7.056  1.00  0.00     0.102 A 
HETATM   29  C   UNL     1      -0.874  -9.553  -8.285  1.00  0.00     0.132 A 
HETATM   30  C   UNL     1      -0.127  -8.912  -9.230  1.00  0.00     0.102 A 
HETATM   31  C   UNL     1       0.510  -7.676  -8.955  1.00  0.00     0.057 A 
BRANCH  28  32
HETATM   32  O   UNL     1      -1.738  -9.628  -6.114  1.00  0.00    -0.358 OA
HETATM   33  H   UNL     1      -2.679  -9.406  -6.240  1.00  0.00     0.217 HD
ENDBRANCH  28  32
BRANCH  29  34
HETATM   34  O   UNL     1      -1.477 -10.741  -8.575  1.00  0.00    -0.356 OA
HETATM   35  H   UNL     1      -0.788 -11.252  -9.047  1.00  0.00     0.218 HD
ENDBRANCH  29  34
BRANCH  30  36
HETATM   36  O   UNL     1       0.018  -9.469 -10.472  1.00  0.00    -0.358 OA
HETATM   37  H   UNL     1      -0.750  -9.145 -10.984  1.00  0.00     0.217 HD
ENDBRANCH  30  36
ENDBRANCH  24  26
ENDBRANCH  23  24
ENDBRANCH  22  23
ENDBRANCH   6  22
BRANCH   3  38
HETATM   38  O   UNL     1       1.892  -0.655 -13.326  1.00  0.00    -0.307 OA
BRANCH  38  39
HETATM   39  C   UNL     1       1.196  -0.289 -14.428  1.00  0.00     0.294 C 
HETATM   40  O   UNL     1       0.810  -1.005 -15.331  1.00  0.00    -0.259 OA
BRANCH  39  41
HETATM   41  C   UNL     1       0.734   1.090 -14.192  1.00  0.00     0.045 A 
HETATM   42  C   UNL     1       1.607   2.071 -13.700  1.00  0.00     0.057 A 
HETATM   43  C   UNL     1       1.089   3.321 -13.377  1.00  0.00     0.102 A 
HETATM   44  C   UNL     1      -0.273   3.576 -13.519  1.00  0.00     0.132 A 
HETATM   45  C   UNL     1      -1.125   2.595 -14.013  1.00  0.00     0.102 A 
HETATM   46  C   UNL     1      -0.631   1.351 -14.369  1.00  0.00     0.057 A 
BRANCH  43  47
HETATM   47  O   UNL     1       1.883   4.319 -12.880  1.00  0.00    -0.358 OA
HETATM   48  H   UNL     1       1.363   5.143 -12.891  1.00  0.00     0.217 HD
ENDBRANCH  43  47
BRANCH  44  49
HETATM   49  O   UNL     1      -0.801   4.787 -13.166  1.00  0.00    -0.356 OA
HETATM   50  H   UNL     1      -0.657   4.853 -12.201  1.00  0.00     0.218 HD
ENDBRANCH  44  49
BRANCH  45  51
HETATM   51  O   UNL     1      -2.462   2.839 -14.126  1.00  0.00    -0.358 OA
HETATM   52  H   UNL     1      -2.540   3.496 -14.847  1.00  0.00     0.217 HD
ENDBRANCH  45  51
ENDBRANCH  39  41
ENDBRANCH  38  39
ENDBRANCH   3  38
BRANCH   4  53
HETATM   53  O   UNL     1       0.276  -0.069 -10.382  1.00  0.00    -0.307 OA
BRANCH  53  54
HETATM   54  C   UNL     1      -0.466   0.478  -9.401  1.00  0.00     0.294 C 
HETATM   55  O   UNL     1      -1.046  -0.089  -8.494  1.00  0.00    -0.259 OA
BRANCH  54  56
HETATM   56  C   UNL     1      -0.493   1.953  -9.567  1.00  0.00     0.045 A 
HETATM   57  C   UNL     1      -1.744   2.583  -9.670  1.00  0.00     0.057 A 
HETATM   58  C   UNL     1      -1.806   3.961  -9.850  1.00  0.00     0.102 A 
HETATM   59  C   UNL     1      -0.637   4.703  -9.960  1.00  0.00     0.132 A 
HETATM   60  C   UNL     1       0.601   4.077  -9.874  1.00  0.00     0.102 A 
HETATM   61  C   UNL     1       0.687   2.707  -9.671  1.00  0.00     0.057 A 
BRANCH  58  62
HETATM   62  O   UNL     1      -2.998   4.625  -9.927  1.00  0.00    -0.358 OA
HETATM   63  H   UNL     1      -2.926   5.438  -9.395  1.00  0.00     0.217 HD
ENDBRANCH  58  62
BRANCH  59  64
HETATM   64  O   UNL     1      -0.684   6.055 -10.163  1.00  0.00    -0.356 OA
HETATM   65  H   UNL     1      -1.365   6.370  -9.534  1.00  0.00     0.218 HD
ENDBRANCH  59  64
BRANCH  60  66
HETATM   66  O   UNL     1       1.747   4.806  -9.999  1.00  0.00    -0.358 OA
HETATM   67  H   UNL     1       1.876   5.222  -9.122  1.00  0.00     0.217 HD
ENDBRANCH  60  66
ENDBRANCH  54  56
ENDBRANCH  53  54
ENDBRANCH   4  53
BRANCH   2  68
HETATM   68  O   UNL     1      -0.329  -3.231 -12.057  1.00  0.00    -0.307 OA
BRANCH  68  69
HETATM   69  C   UNL     1      -0.803  -3.664 -13.250  1.00  0.00     0.294 C 
HETATM   70  O   UNL     1      -1.355  -2.984 -14.096  1.00  0.00    -0.259 OA
BRANCH  69  71
HETATM   71  C   UNL     1      -0.624  -5.131 -13.373  1.00  0.00     0.045 A 
HETATM   72  C   UNL     1      -1.522  -5.974 -12.696  1.00  0.00     0.057 A 
HETATM   73  C   UNL     1      -1.314  -7.348 -12.721  1.00  0.00     0.102 A 
HETATM   74  C   UNL     1      -0.225  -7.881 -13.402  1.00  0.00     0.132 A 
HETATM   75  C   UNL     1       0.661  -7.045 -14.068  1.00  0.00     0.102 A 
HETATM   76  C   UNL     1       0.473  -5.672 -14.063  1.00  0.00     0.057 A 
BRANCH  73  77
HETATM   77  O   UNL     1      -2.146  -8.221 -12.075  1.00  0.00    -0.358 OA
HETATM   78  H   UNL     1      -2.324  -8.975 -12.666  1.00  0.00     0.217 HD
ENDBRANCH  73  77
BRANCH  74  79
HETATM   79  O   UNL     1       0.002  -9.229 -13.413  1.00  0.00    -0.356 OA
HETATM   80  H   UNL     1       0.763  -9.354 -12.809  1.00  0.00     0.218 HD
ENDBRANCH  74  79
BRANCH  75  81
HETATM   81  O   UNL     1       1.743  -7.565 -14.717  1.00  0.00    -0.358 OA
HETATM   82  H   UNL     1       1.487  -8.482 -14.940  1.00  0.00     0.217 HD
ENDBRANCH  75  81
ENDBRANCH  69  71
ENDBRANCH  68  69
ENDBRANCH   2  68
TORSDOF 31
ENDMDL
MODEL 8
REMARK VINA RESULT:      -4.3      1.504      1.944
REMARK  31 active torsions:
REMARK  status: ('A' for Active; 'I' for Inactive)
REMARK    1  A    between atoms: O_2  and  C_34 
REMARK    2  A    between atoms: O_2  and  C_26 
REMARK    3  A    between atoms: O_3  and  C_27 
REMARK    4  A    between atoms: O_3  and  C_35 
REMARK    5  A    between atoms: O_4  and  C_28 
REMARK    6  A    between atoms: O_4  and  C_36 
REMARK    7  A    between atoms: O_5  and  C_32 
REMARK    8  A    between atoms: O_5  and  C_41 
REMARK    9  A    between atoms: O_11  and  C_51 
REMARK   10  A    between atoms: O_12  and  C_52 
REMARK   11  A    between atoms: O_13  and  C_53 
REMARK   12  A    between atoms: O_14  and  C_54 
REMARK   13  A    between atoms: O_15  and  C_55 
REMARK   14  A    between atoms: O_16  and  C_56 
REMARK   15  A    between atoms: O_17  and  C_57 
REMARK   16  A    between atoms: O_18  and  C_58 
REMARK   17  A    between atoms: O_19  and  C_59 
REMARK   18  A    between atoms: O_20  and  C_62 
REMARK   19  A    between atoms: O_21  and  C_63 
REMARK   20  A    between atoms: O_22  and  C_64 
REMARK   21  A    between atoms: O_23  and  C_65 
REMARK   22  A    between atoms: O_24  and  C_66 
REMARK   23  A    between atoms: O_25  and  C_67 
REMARK   24  A    between atoms: C_29  and  C_31 
REMARK   25  A    between atoms: C_30  and  C_32 
REMARK   26  A    between atoms: C_31  and  C_33 
REMARK   27  A    between atoms: C_33  and  C_37 
REMARK   28  A    between atoms: C_34  and  C_38 
REMARK   29  A    between atoms: C_35  and  C_39 
REMARK   30  A    between atoms: C_36  and  C_40 
REMARK   31  A    between atoms: C_41  and  C_44 
ROOT
HETATM    1  O   UNL     1       0.971  -1.743 -11.115  1.00  0.00    -0.373 OA
HETATM    2  C   UNL     1       1.029  -1.944 -14.012  1.00  0.00     0.196 C 
HETATM    3  C   UNL     1      -0.295  -2.133 -13.249  1.00  0.00     0.193 C 
HETATM    4  C   UNL     1       2.304  -2.074 -13.159  1.00  0.00     0.195 C 
HETATM    5  C   UNL     1      -0.282  -1.627 -11.787  1.00  0.00     0.161 C 
HETATM    6  C   UNL     1       2.187  -1.406 -11.784  1.00  0.00     0.178 C 
ENDROOT
BRANCH   5   7
HETATM    7  C   UNL     1      -0.872  -0.225 -11.588  1.00  0.00     0.118 C 
BRANCH   7   8
HETATM    8  C   UNL     1      -0.400   0.329 -10.252  1.00  0.00     0.162 C 
HETATM    9  O   UNL     1       0.143  -0.350  -9.385  1.00  0.00    -0.292 OA
BRANCH   8  10
HETATM   10  C   UNL     1      -0.498   1.785 -10.026  1.00  0.00     0.015 C 
HETATM   11  C   UNL     1      -2.083   2.547  -9.519  1.00  0.00     0.054 C 
HETATM   12  C   UNL     1      -2.272   4.344  -9.684  1.00  0.00     0.102 C 
HETATM   13  C   UNL     1      -0.831   5.403 -10.064  1.00  0.00     0.132 C 
HETATM   14  C   UNL     1       0.796   4.650 -10.359  1.00  0.00     0.102 C 
HETATM   15  C   UNL     1       0.939   2.844 -10.467  1.00  0.00     0.054 C 
BRANCH  12  16
HETATM   16  O   UNL     1      -3.494   4.919  -9.505  1.00  0.00    -0.358 OA
HETATM   17  H   UNL     1      -4.116   4.222  -9.236  1.00  0.00     0.217 HD
ENDBRANCH  12  16
BRANCH  13  18
HETATM   18  O   UNL     1      -0.965   6.754 -10.172  1.00  0.00    -0.356 OA
HETATM   19  H   UNL     1      -1.905   6.881 -10.398  1.00  0.00     0.218 HD
ENDBRANCH  13  18
BRANCH  14  20
HETATM   20  O   UNL     1       1.835   5.466 -10.691  1.00  0.00    -0.358 OA
HETATM   21  H   UNL     1       1.799   5.576 -11.656  1.00  0.00     0.217 HD
ENDBRANCH  14  20
ENDBRANCH   8  10
ENDBRANCH   7   8
ENDBRANCH   5   7
BRANCH   6  22
HETATM   22  C   UNL     1       2.469   0.110 -11.891  1.00  0.00     0.213 C 
BRANCH  22  23
HETATM   23  O   UNL     1       3.606   0.547 -11.129  1.00  0.00    -0.315 OA
BRANCH  23  24
HETATM   24  C   UNL     1       3.815   0.153  -9.720  1.00  0.00     0.293 C 
HETATM   25  O   UNL     1       4.010   1.282  -9.193  1.00  0.00    -0.259 OA
BRANCH  24  26
HETATM   26  C   UNL     1       3.789  -1.861  -8.960  1.00  0.00     0.045 A 
HETATM   27  C   UNL     1       3.950  -3.215  -9.692  1.00  0.00     0.057 A 
HETATM   28  C   UNL     1       3.927  -4.542  -9.184  1.00  0.00     0.102 A 
HETATM   29  C   UNL     1       3.770  -4.781  -7.847  1.00  0.00     0.132 A 
HETATM   30  C   UNL     1       3.624  -3.708  -7.017  1.00  0.00     0.102 A 
HETATM   31  C   UNL     1       3.635  -2.381  -7.516  1.00  0.00     0.057 A 
BRANCH  28  32
HETATM   32  O   UNL     1       4.061  -5.631 -10.005  1.00  0.00    -0.358 OA
HETATM   33  H   UNL     1       3.866  -6.440  -9.496  1.00  0.00     0.217 HD
ENDBRANCH  28  32
BRANCH  29  34
HETATM   34  O   UNL     1       3.757  -6.047  -7.342  1.00  0.00    -0.356 OA
HETATM   35  H   UNL     1       2.838  -6.353  -7.482  1.00  0.00     0.218 HD
ENDBRANCH  29  34
BRANCH  30  36
HETATM   36  O   UNL     1       3.462  -3.908  -5.673  1.00  0.00    -0.358 OA
HETATM   37  H   UNL     1       2.531  -3.667  -5.493  1.00  0.00     0.217 HD
ENDBRANCH  30  36
ENDBRANCH  24  26
ENDBRANCH  23  24
ENDBRANCH  22  23
ENDBRANCH   6  22
BRANCH   3  38
HETATM   38  O   UNL     1      -0.544  -3.564 -13.228  1.00  0.00    -0.307 OA
BRANCH  38  39
HETATM   39  C   UNL     1      -1.208  -4.066 -14.295  1.00  0.00     0.294 C 
HETATM   40  O   UNL     1      -1.525  -3.479 -15.312  1.00  0.00    -0.259 OA
BRANCH  39  41
HETATM   41  C   UNL     1      -1.221  -5.529 -14.130  1.00  0.00     0.045 A 
HETATM   42  C   UNL     1      -1.764  -6.122 -12.981  1.00  0.00     0.057 A 
HETATM   43  C   UNL     1      -1.638  -7.499 -12.820  1.00  0.00     0.102 A 
HETATM   44  C   UNL     1      -0.963  -8.259 -13.772  1.00  0.00     0.132 A 
HETATM   45  C   UNL     1      -0.436  -7.657 -14.909  1.00  0.00     0.102 A 
HETATM   46  C   UNL     1      -0.571  -6.293 -15.108  1.00  0.00     0.057 A 
BRANCH  43  47
HETATM   47  O   UNL     1      -2.132  -8.139 -11.716  1.00  0.00    -0.358 OA
HETATM   48  H   UNL     1      -3.090  -7.960 -11.675  1.00  0.00     0.217 HD
ENDBRANCH  43  47
BRANCH  44  49
HETATM   49  O   UNL     1      -0.796  -9.606 -13.605  1.00  0.00    -0.356 OA
HETATM   50  H   UNL     1      -1.697  -9.955 -13.452  1.00  0.00     0.218 HD
ENDBRANCH  44  49
BRANCH  45  51
HETATM   51  O   UNL     1       0.247  -8.400 -15.826  1.00  0.00    -0.358 OA
HETATM   52  H   UNL     1       0.085  -7.956 -16.683  1.00  0.00     0.217 HD
ENDBRANCH  45  51
ENDBRANCH  39  41
ENDBRANCH  38  39
ENDBRANCH   3  38
BRANCH   4  53
HETATM   53  O   UNL     1       2.861  -3.416 -13.133  1.00  0.00    -0.307 OA
BRANCH  53  54
HETATM   54  C   UNL     1       3.493  -3.993 -14.172  1.00  0.00     0.294 C 
HETATM   55  O   UNL     1       4.065  -3.450 -15.099  1.00  0.00    -0.259 OA
BRANCH  54  56
HETATM   56  C   UNL     1       3.405  -5.471 -14.045  1.00  0.00     0.045 A 
HETATM   57  C   UNL     1       3.362  -6.233 -15.223  1.00  0.00     0.057 A 
HETATM   58  C   UNL     1       3.255  -7.617 -15.141  1.00  0.00     0.102 A 
HETATM   59  C   UNL     1       3.158  -8.237 -13.901  1.00  0.00     0.132 A 
HETATM   60  C   UNL     1       3.185  -7.480 -12.736  1.00  0.00     0.102 A 
HETATM   61  C   UNL     1       3.314  -6.100 -12.793  1.00  0.00     0.057 A 
BRANCH  58  62
HETATM   62  O   UNL     1       3.239  -8.407 -16.256  1.00  0.00    -0.358 OA
HETATM   63  H   UNL     1       3.668  -9.253 -16.035  1.00  0.00     0.217 HD
ENDBRANCH  58  62
BRANCH  59  64
HETATM   64  O   UNL     1       3.026  -9.596 -13.808  1.00  0.00    -0.356 OA
HETATM   65  H   UNL     1       3.650  -9.946 -14.478  1.00  0.00     0.218 HD
ENDBRANCH  59  64
BRANCH  60  66
HETATM   66  O   UNL     1       3.073  -8.090 -11.521  1.00  0.00    -0.358 OA
HETATM   67  H   UNL     1       2.429  -7.544 -11.025  1.00  0.00     0.217 HD
ENDBRANCH  60  66
ENDBRANCH  54  56
ENDBRANCH  53  54
ENDBRANCH   4  53
BRANCH   2  68
HETATM   68  O   UNL     1       1.075  -0.626 -14.615  1.00  0.00    -0.307 OA
BRANCH  68  69
HETATM   69  C   UNL     1       0.250  -0.427 -15.671  1.00  0.00     0.294 C 
HETATM   70  O   UNL     1      -0.239  -1.291 -16.375  1.00  0.00    -0.259 OA
BRANCH  69  71
HETATM   71  C   UNL     1       0.065   1.024 -15.913  1.00  0.00     0.045 A 
HETATM   72  C   UNL     1       1.207   1.837 -16.004  1.00  0.00     0.057 A 
HETATM   73  C   UNL     1       1.052   3.213 -16.136  1.00  0.00     0.102 A 
HETATM   74  C   UNL     1      -0.218   3.776 -16.168  1.00  0.00     0.132 A 
HETATM   75  C   UNL     1      -1.344   2.969 -16.076  1.00  0.00     0.102 A 
HETATM   76  C   UNL     1      -1.217   1.595 -15.950  1.00  0.00     0.057 A 
BRANCH  73  77
HETATM   77  O   UNL     1       2.123   4.059 -16.221  1.00  0.00    -0.358 OA
HETATM   78  H   UNL     1       2.328   4.208 -17.161  1.00  0.00     0.217 HD
ENDBRANCH  73  77
BRANCH  74  79
HETATM   79  O   UNL     1      -0.381   5.130 -16.274  1.00  0.00    -0.356 OA
HETATM   80  H   UNL     1      -0.554   5.282 -17.225  1.00  0.00     0.218 HD
ENDBRANCH  74  79
BRANCH  75  81
HETATM   81  O   UNL     1      -2.591   3.523 -16.085  1.00  0.00    -0.358 OA
HETATM   82  H   UNL     1      -2.756   3.788 -15.157  1.00  0.00     0.217 HD
ENDBRANCH  75  81
ENDBRANCH  69  71
ENDBRANCH  68  69
ENDBRANCH   2  68
TORSDOF 31
ENDMDL
MODEL 9
REMARK VINA RESULT:      -4.1      2.672      8.728
REMARK  31 active torsions:
REMARK  status: ('A' for Active; 'I' for Inactive)
REMARK    1  A    between atoms: O_2  and  C_34 
REMARK    2  A    between atoms: O_2  and  C_26 
REMARK    3  A    between atoms: O_3  and  C_27 
REMARK    4  A    between atoms: O_3  and  C_35 
REMARK    5  A    between atoms: O_4  and  C_28 
REMARK    6  A    between atoms: O_4  and  C_36 
REMARK    7  A    between atoms: O_5  and  C_32 
REMARK    8  A    between atoms: O_5  and  C_41 
REMARK    9  A    between atoms: O_11  and  C_51 
REMARK   10  A    between atoms: O_12  and  C_52 
REMARK   11  A    between atoms: O_13  and  C_53 
REMARK   12  A    between atoms: O_14  and  C_54 
REMARK   13  A    between atoms: O_15  and  C_55 
REMARK   14  A    between atoms: O_16  and  C_56 
REMARK   15  A    between atoms: O_17  and  C_57 
REMARK   16  A    between atoms: O_18  and  C_58 
REMARK   17  A    between atoms: O_19  and  C_59 
REMARK   18  A    between atoms: O_20  and  C_62 
REMARK   19  A    between atoms: O_21  and  C_63 
REMARK   20  A    between atoms: O_22  and  C_64 
REMARK   21  A    between atoms: O_23  and  C_65 
REMARK   22  A    between atoms: O_24  and  C_66 
REMARK   23  A    between atoms: O_25  and  C_67 
REMARK   24  A    between atoms: C_29  and  C_31 
REMARK   25  A    between atoms: C_30  and  C_32 
REMARK   26  A    between atoms: C_31  and  C_33 
REMARK   27  A    between atoms: C_33  and  C_37 
REMARK   28  A    between atoms: C_34  and  C_38 
REMARK   29  A    between atoms: C_35  and  C_39 
REMARK   30  A    between atoms: C_36  and  C_40 
REMARK   31  A    between atoms: C_41  and  C_44 
ROOT
HETATM    1  O   UNL     1      -0.872  -4.538 -12.704  1.00  0.00    -0.373 OA
HETATM    2  C   UNL     1       0.961  -6.780 -12.932  1.00  0.00     0.196 C 
HETATM    3  C   UNL     1      -0.509  -6.935 -13.362  1.00  0.00     0.193 C 
HETATM    4  C   UNL     1       1.256  -5.573 -12.023  1.00  0.00     0.195 C 
HETATM    5  C   UNL     1      -1.273  -5.603 -13.563  1.00  0.00     0.161 C 
HETATM    6  C   UNL     1       0.511  -4.300 -12.440  1.00  0.00     0.178 C 
ENDROOT
BRANCH   5   7
HETATM    7  C   UNL     1      -1.351  -5.122 -15.018  1.00  0.00     0.118 C 
BRANCH   7   8
HETATM    8  C   UNL     1      -0.584  -6.092 -15.904  1.00  0.00     0.162 C 
HETATM    9  O   UNL     1       0.546  -5.879 -16.332  1.00  0.00    -0.292 OA
BRANCH   8  10
HETATM   10  C   UNL     1      -1.185  -7.414 -16.176  1.00  0.00     0.015 C 
HETATM   11  C   UNL     1      -2.995  -7.593 -16.376  1.00  0.00     0.054 C 
HETATM   12  C   UNL     1      -3.720  -9.253 -16.264  1.00  0.00     0.102 C 
HETATM   13  C   UNL     1      -2.653 -10.737 -16.246  1.00  0.00     0.132 C 
HETATM   14  C   UNL     1      -0.846 -10.556 -16.261  1.00  0.00     0.102 C 
HETATM   15  C   UNL     1      -0.111  -8.904 -16.097  1.00  0.00     0.054 C 
BRANCH  12  16
HETATM   16  O   UNL     1      -5.073  -9.402 -16.211  1.00  0.00    -0.358 OA
HETATM   17  H   UNL     1      -5.427  -8.715 -15.624  1.00  0.00     0.217 HD
ENDBRANCH  12  16
BRANCH  13  18
HETATM   18  O   UNL     1      -3.192 -11.986 -16.179  1.00  0.00    -0.356 OA
HETATM   19  H   UNL     1      -2.460 -12.574 -16.442  1.00  0.00     0.218 HD
ENDBRANCH  13  18
BRANCH  14  20
HETATM   20  O   UNL     1      -0.081 -11.682 -16.194  1.00  0.00    -0.358 OA
HETATM   21  H   UNL     1       0.020 -11.999 -17.108  1.00  0.00     0.217 HD
ENDBRANCH  14  20
ENDBRANCH   8  10
ENDBRANCH   7   8
ENDBRANCH   5   7
BRANCH   6  22
HETATM   22  C   UNL     1       1.271  -3.574 -13.573  1.00  0.00     0.213 C 
BRANCH  22  23
HETATM   23  O   UNL     1       1.239  -2.140 -13.471  1.00  0.00    -0.315 OA
BRANCH  23  24
HETATM   24  C   UNL     1       2.132  -1.390 -12.564  1.00  0.00     0.293 C 
HETATM   25  O   UNL     1       3.235  -1.948 -12.815  1.00  0.00    -0.259 OA
BRANCH  24  26
HETATM   26  C   UNL     1       1.531   0.179 -11.218  1.00  0.00     0.045 A 
HETATM   27  C   UNL     1       0.237   0.350 -10.387  1.00  0.00     0.057 A 
HETATM   28  C   UNL     1      -0.156   1.392  -9.504  1.00  0.00     0.102 A 
HETATM   29  C   UNL     1       0.672   2.450  -9.251  1.00  0.00     0.132 A 
HETATM   30  C   UNL     1       1.882   2.482  -9.882  1.00  0.00     0.102 A 
HETATM   31  C   UNL     1       2.277   1.452 -10.773  1.00  0.00     0.057 A 
BRANCH  28  32
HETATM   32  O   UNL     1      -1.372   1.381  -8.871  1.00  0.00    -0.358 OA
HETATM   33  H   UNL     1      -1.337   0.752  -8.126  1.00  0.00     0.217 HD
ENDBRANCH  28  32
BRANCH  29  34
HETATM   34  O   UNL     1       0.315   3.452  -8.399  1.00  0.00    -0.356 OA
HETATM   35  H   UNL     1      -0.412   3.069  -7.867  1.00  0.00     0.218 HD
ENDBRANCH  29  34
BRANCH  30  36
HETATM   36  O   UNL     1       2.736   3.527  -9.657  1.00  0.00    -0.358 OA
HETATM   37  H   UNL     1       3.137   3.717 -10.529  1.00  0.00     0.217 HD
ENDBRANCH  30  36
ENDBRANCH  24  26
ENDBRANCH  23  24
ENDBRANCH  22  23
ENDBRANCH   6  22
BRANCH   3  38
HETATM   38  O   UNL     1      -1.164  -7.672 -12.295  1.00  0.00    -0.307 OA
BRANCH  38  39
HETATM   39  C   UNL     1      -1.297  -9.005 -12.492  1.00  0.00     0.294 C 
HETATM   40  O   UNL     1      -0.464  -9.869 -12.299  1.00  0.00    -0.259 OA
BRANCH  39  41
HETATM   41  C   UNL     1      -2.733  -9.254 -12.706  1.00  0.00     0.045 A 
HETATM   42  C   UNL     1      -3.634  -8.193 -12.873  1.00  0.00     0.057 A 
HETATM   43  C   UNL     1      -4.994  -8.480 -12.945  1.00  0.00     0.102 A 
HETATM   44  C   UNL     1      -5.442  -9.794 -12.829  1.00  0.00     0.132 A 
HETATM   45  C   UNL     1      -4.536 -10.836 -12.670  1.00  0.00     0.102 A 
HETATM   46  C   UNL     1      -3.175 -10.581 -12.622  1.00  0.00     0.057 A 
BRANCH  43  47
HETATM   47  O   UNL     1      -5.928  -7.491 -13.094  1.00  0.00    -0.358 OA
HETATM   48  H   UNL     1      -5.885  -6.923 -12.303  1.00  0.00     0.217 HD
ENDBRANCH  43  47
BRANCH  44  49
HETATM   49  O   UNL     1      -6.778 -10.085 -12.857  1.00  0.00    -0.356 OA
HETATM   50  H   UNL     1      -6.900 -10.777 -12.177  1.00  0.00     0.218 HD
ENDBRANCH  44  49
BRANCH  45  51
HETATM   51  O   UNL     1      -4.979 -12.117 -12.530  1.00  0.00    -0.358 OA
HETATM   52  H   UNL     1      -4.720 -12.568 -13.360  1.00  0.00     0.217 HD
ENDBRANCH  45  51
ENDBRANCH  39  41
ENDBRANCH  38  39
ENDBRANCH   3  38
BRANCH   4  53
HETATM   53  O   UNL     1       1.187  -5.876 -10.602  1.00  0.00    -0.307 OA
BRANCH  53  54
HETATM   54  C   UNL     1       2.046  -6.688  -9.959  1.00  0.00     0.294 C 
HETATM   55  O   UNL     1       3.259  -6.723 -10.051  1.00  0.00    -0.259 OA
BRANCH  54  56
HETATM   56  C   UNL     1       1.287  -7.599  -9.063  1.00  0.00     0.045 A 
HETATM   57  C   UNL     1       1.971  -8.185  -7.986  1.00  0.00     0.057 A 
HETATM   58  C   UNL     1       1.298  -9.061  -7.141  1.00  0.00     0.102 A 
HETATM   59  C   UNL     1      -0.033  -9.379  -7.384  1.00  0.00     0.132 A 
HETATM   60  C   UNL     1      -0.704  -8.811  -8.460  1.00  0.00     0.102 A 
HETATM   61  C   UNL     1      -0.060  -7.916  -9.301  1.00  0.00     0.057 A 
BRANCH  58  62
HETATM   62  O   UNL     1       1.908  -9.635  -6.062  1.00  0.00    -0.358 OA
HETATM   63  H   UNL     1       1.643  -9.141  -5.266  1.00  0.00     0.217 HD
ENDBRANCH  58  62
BRANCH  59  64
HETATM   64  O   UNL     1      -0.699 -10.259  -6.576  1.00  0.00    -0.356 OA
HETATM   65  H   UNL     1      -0.176 -10.271  -5.748  1.00  0.00     0.218 HD
ENDBRANCH  59  64
BRANCH  60  66
HETATM   66  O   UNL     1      -2.006  -9.137  -8.704  1.00  0.00    -0.358 OA
HETATM   67  H   UNL     1      -2.447  -8.283  -8.891  1.00  0.00     0.217 HD
ENDBRANCH  60  66
ENDBRANCH  54  56
ENDBRANCH  53  54
ENDBRANCH   4  53
BRANCH   2  68
HETATM   68  O   UNL     1       1.810  -6.629 -14.097  1.00  0.00    -0.307 OA
BRANCH  68  69
HETATM   69  C   UNL     1       3.115  -6.951 -13.926  1.00  0.00     0.294 C 
HETATM   70  O   UNL     1       4.047  -6.170 -13.864  1.00  0.00    -0.259 OA
BRANCH  69  71
HETATM   71  C   UNL     1       3.282  -8.423 -13.892  1.00  0.00     0.045 A 
HETATM   72  C   UNL     1       3.137  -9.141 -15.092  1.00  0.00     0.057 A 
HETATM   73  C   UNL     1       3.195 -10.530 -15.064  1.00  0.00     0.102 A 
HETATM   74  C   UNL     1       3.386 -11.200 -13.861  1.00  0.00     0.132 A 
HETATM   75  C   UNL     1       3.527 -10.488 -12.678  1.00  0.00     0.102 A 
HETATM   76  C   UNL     1       3.479  -9.103 -12.680  1.00  0.00     0.057 A 
BRANCH  73  77
HETATM   77  O   UNL     1       3.053 -11.286 -16.195  1.00  0.00    -0.358 OA
HETATM   78  H   UNL     1       2.613 -12.121 -15.957  1.00  0.00     0.217 HD
ENDBRANCH  73  77
BRANCH  74  79
HETATM   79  O   UNL     1       3.421 -12.566 -13.820  1.00  0.00    -0.356 OA
HETATM   80  H   UNL     1       4.203 -12.774 -13.267  1.00  0.00     0.218 HD
ENDBRANCH  74  79
BRANCH  75  81
HETATM   81  O   UNL     1       3.692 -11.145 -11.493  1.00  0.00    -0.358 OA
HETATM   82  H   UNL     1       2.851 -11.011 -11.011  1.00  0.00     0.217 HD
ENDBRANCH  75  81
ENDBRANCH  69  71
ENDBRANCH  68  69
ENDBRANCH   2  68
TORSDOF 31
ENDMDL
