REMARK  31 active torsions:
REMARK  status: ('A' for Active; 'I' for Inactive)
REMARK    1  A    between atoms: O_2  and  C_34 
REMARK    2  A    between atoms: O_2  and  C_26 
REMARK    3  A    between atoms: O_3  and  C_27 
REMARK    4  A    between atoms: O_3  and  C_35 
REMARK    5  A    between atoms: O_4  and  C_28 
REMARK    6  A    between atoms: O_4  and  C_36 
REMARK    7  A    between atoms: O_5  and  C_32 
REMARK    8  A    between atoms: O_5  and  C_41 
REMARK    9  A    between atoms: O_11  and  C_51 
REMARK   10  A    between atoms: O_12  and  C_52 
REMARK   11  A    between atoms: O_13  and  C_53 
REMARK   12  A    between atoms: O_14  and  C_54 
REMARK   13  A    between atoms: O_15  and  C_55 
REMARK   14  A    between atoms: O_16  and  C_56 
REMARK   15  A    between atoms: O_17  and  C_57 
REMARK   16  A    between atoms: O_18  and  C_58 
REMARK   17  A    between atoms: O_19  and  C_59 
REMARK   18  A    between atoms: O_20  and  C_62 
REMARK   19  A    between atoms: O_21  and  C_63 
REMARK   20  A    between atoms: O_22  and  C_64 
REMARK   21  A    between atoms: O_23  and  C_65 
REMARK   22  A    between atoms: O_24  and  C_66 
REMARK   23  A    between atoms: O_25  and  C_67 
REMARK   24  A    between atoms: C_29  and  C_31 
REMARK   25  A    between atoms: C_30  and  C_32 
REMARK   26  A    between atoms: C_31  and  C_33 
REMARK   27  A    between atoms: C_33  and  C_37 
REMARK   28  A    between atoms: C_34  and  C_38 
REMARK   29  A    between atoms: C_35  and  C_39 
REMARK   30  A    between atoms: C_36  and  C_40 
REMARK   31  A    between atoms: C_41  and  C_44 
ROOT
HETATM    1  O   UNL     1       1.303   1.565  -0.359  1.00  0.00    -0.373 OA
HETATM    2  C   UNL     1      -1.311   0.540  -1.103  1.00  0.00     0.196 C 
HETATM    3  C   UNL     1      -0.350  -0.324  -0.266  1.00  0.00     0.193 C 
HETATM    4  C   UNL     1      -0.658   1.724  -1.839  1.00  0.00     0.195 C 
HETATM    5  C   UNL     1       0.820   0.450   0.388  1.00  0.00     0.161 C 
HETATM    6  C   UNL     1       0.392   2.459  -0.999  1.00  0.00     0.178 C 
ENDROOT
BRANCH   5   7
HETATM    7  C   UNL     1       0.590   0.842   1.853  1.00  0.00     0.118 C 
BRANCH   7   8
HETATM    8  C   UNL     1       1.887   1.389   2.431  1.00  0.00     0.162 C 
HETATM    9  O   UNL     1       2.769   0.686   2.915  1.00  0.00    -0.292 OA
BRANCH   8  10
HETATM   10  C   UNL     1       2.152   2.836   2.303  1.00  0.00     0.015 C 
HETATM   11  C   UNL     1       1.067   4.061   3.122  1.00  0.00     0.054 C 
HETATM   12  C   UNL     1       1.156   5.793   2.588  1.00  0.00     0.102 C 
HETATM   13  C   UNL     1       2.492   6.358   1.475  1.00  0.00     0.132 C 
HETATM   14  C   UNL     1       3.701   5.166   0.830  1.00  0.00     0.102 C 
HETATM   15  C   UNL     1       3.460   3.393   1.136  1.00  0.00     0.054 C 
BRANCH  12  16
HETATM   16  O   UNL     1       0.232   6.690   3.032  1.00  0.00    -0.358 OA
HETATM   17  H   UNL     1      -0.396   6.216   3.601  1.00  0.00     0.217 HD
ENDBRANCH  12  16
BRANCH  13  18
HETATM   18  O   UNL     1       2.573   7.660   1.085  1.00  0.00    -0.356 OA
HETATM   19  H   UNL     1       3.283   7.663   0.416  1.00  0.00     0.218 HD
ENDBRANCH  13  18
BRANCH  14  20
HETATM   20  O   UNL     1       4.651   5.613  -0.038  1.00  0.00    -0.358 OA
HETATM   21  H   UNL     1       4.981   4.830  -0.510  1.00  0.00     0.217 HD
ENDBRANCH  14  20
ENDBRANCH   8  10
ENDBRANCH   7   8
ENDBRANCH   5   7
BRANCH   6  22
HETATM   22  C   UNL     1      -0.285   3.479  -0.055  1.00  0.00     0.213 C 
BRANCH  22  23
HETATM   23  O   UNL     1       0.458   3.744   1.147  1.00  0.00    -0.315 OA
BRANCH  23  24
HETATM   24  C   UNL     1       1.739   4.480   1.140  1.00  0.00     0.293 C 
HETATM   25  O   UNL     1       1.788   4.843  -0.067  1.00  0.00    -0.259 OA
BRANCH  24  26
HETATM   26  C   UNL     1       3.055   4.734   2.825  1.00  0.00     0.045 A 
HETATM   27  C   UNL     1       4.071   3.757   3.463  1.00  0.00     0.057 A 
HETATM   28  C   UNL     1       4.934   3.930   4.580  1.00  0.00     0.102 A 
HETATM   29  C   UNL     1       4.976   5.115   5.260  1.00  0.00     0.132 A 
HETATM   30  C   UNL     1       4.156   6.123   4.842  1.00  0.00     0.102 A 
HETATM   31  C   UNL     1       3.285   5.956   3.736  1.00  0.00     0.057 A 
BRANCH  28  32
HETATM   32  O   UNL     1       5.755   2.924   5.019  1.00  0.00    -0.358 OA
HETATM   33  H   UNL     1       5.521   2.098   4.556  1.00  0.00     0.217 HD
ENDBRANCH  28  32
BRANCH  29  34
HETATM   34  O   UNL     1       5.805   5.301   6.326  1.00  0.00    -0.356 OA
HETATM   35  H   UNL     1       6.290   4.454   6.405  1.00  0.00     0.218 HD
ENDBRANCH  29  34
BRANCH  30  36
HETATM   36  O   UNL     1       4.168   7.323   5.500  1.00  0.00    -0.358 OA
HETATM   37  H   UNL     1       4.845   7.220   6.199  1.00  0.00     0.217 HD
ENDBRANCH  30  36
ENDBRANCH  24  26
ENDBRANCH  23  24
ENDBRANCH  22  23
ENDBRANCH   6  22
BRANCH   3  38
HETATM   38  O   UNL     1       0.213  -1.300  -1.183  1.00  0.00    -0.307 OA
BRANCH  38  39
HETATM   39  C   UNL     1      -0.516  -2.425  -1.371  1.00  0.00     0.294 C 
HETATM   40  O   UNL     1      -1.331  -2.914  -0.613  1.00  0.00    -0.259 OA
BRANCH  39  41
HETATM   41  C   UNL     1      -0.359  -2.793  -2.788  1.00  0.00     0.045 A 
HETATM   42  C   UNL     1       0.898  -3.119  -3.316  1.00  0.00     0.057 A 
HETATM   43  C   UNL     1       1.009  -3.336  -4.686  1.00  0.00     0.102 A 
HETATM   44  C   UNL     1      -0.106  -3.206  -5.511  1.00  0.00     0.132 A 
HETATM   45  C   UNL     1      -1.347  -2.888  -4.972  1.00  0.00     0.102 A 
HETATM   46  C   UNL     1      -1.491  -2.694  -3.608  1.00  0.00     0.057 A 
BRANCH  43  47
HETATM   47  O   UNL     1       2.209  -3.644  -5.268  1.00  0.00    -0.358 OA
HETATM   48  H   UNL     1       2.816  -3.929  -4.560  1.00  0.00     0.217 HD
ENDBRANCH  43  47
BRANCH  44  49
HETATM   49  O   UNL     1      -0.002  -3.376  -6.864  1.00  0.00    -0.356 OA
HETATM   50  H   UNL     1       0.940  -3.587  -7.020  1.00  0.00     0.218 HD
ENDBRANCH  44  49
BRANCH  45  51
HETATM   51  O   UNL     1      -2.431  -2.736  -5.785  1.00  0.00    -0.358 OA
HETATM   52  H   UNL     1      -2.092  -2.886  -6.691  1.00  0.00     0.217 HD
ENDBRANCH  45  51
ENDBRANCH  39  41
ENDBRANCH  38  39
ENDBRANCH   3  38
BRANCH   4  53
HETATM   53  O   UNL     1      -0.238   1.414  -3.196  1.00  0.00    -0.307 OA
BRANCH  53  54
HETATM   54  C   UNL     1       0.930   0.824  -3.511  1.00  0.00     0.294 C 
HETATM   55  O   UNL     1       1.738   0.310  -2.760  1.00  0.00    -0.259 OA
BRANCH  54  56
HETATM   56  C   UNL     1       1.129   0.877  -4.982  1.00  0.00     0.045 A 
HETATM   57  C   UNL     1       2.056  -0.009  -5.555  1.00  0.00     0.057 A 
HETATM   58  C   UNL     1       2.285   0.030  -6.926  1.00  0.00     0.102 A 
HETATM   59  C   UNL     1       1.625   0.962  -7.717  1.00  0.00     0.132 A 
HETATM   60  C   UNL     1       0.720   1.849  -7.147  1.00  0.00     0.102 A 
HETATM   61  C   UNL     1       0.458   1.813  -5.785  1.00  0.00     0.057 A 
BRANCH  58  62
HETATM   62  O   UNL     1       3.154  -0.830  -7.537  1.00  0.00    -0.358 OA
HETATM   63  H   UNL     1       3.478  -1.459  -6.868  1.00  0.00     0.217 HD
ENDBRANCH  58  62
BRANCH  59  64
HETATM   64  O   UNL     1       1.861   1.028  -9.063  1.00  0.00    -0.356 OA
HETATM   65  H   UNL     1       2.528   0.329  -9.226  1.00  0.00     0.218 HD
ENDBRANCH  59  64
BRANCH  60  66
HETATM   66  O   UNL     1       0.086   2.774  -7.924  1.00  0.00    -0.358 OA
HETATM   67  H   UNL     1       0.429   2.619  -8.828  1.00  0.00     0.217 HD
ENDBRANCH  60  66
ENDBRANCH  54  56
ENDBRANCH  53  54
ENDBRANCH   4  53
BRANCH   2  68
HETATM   68  O   UNL     1      -2.342   1.106  -0.255  1.00  0.00    -0.307 OA
BRANCH  68  69
HETATM   69  C   UNL     1      -3.506   0.415  -0.194  1.00  0.00     0.294 C 
HETATM   70  O   UNL     1      -3.671  -0.747  -0.516  1.00  0.00    -0.259 OA
BRANCH  69  71
HETATM   71  C   UNL     1      -4.605   1.299   0.263  1.00  0.00     0.045 A 
HETATM   72  C   UNL     1      -5.771   0.706   0.776  1.00  0.00     0.057 A 
HETATM   73  C   UNL     1      -6.849   1.514   1.121  1.00  0.00     0.102 A 
HETATM   74  C   UNL     1      -6.775   2.892   0.952  1.00  0.00     0.132 A 
HETATM   75  C   UNL     1      -5.622   3.474   0.443  1.00  0.00     0.102 A 
HETATM   76  C   UNL     1      -4.532   2.691   0.097  1.00  0.00     0.057 A 
BRANCH  73  77
HETATM   77  O   UNL     1      -8.014   0.998   1.617  1.00  0.00    -0.358 OA
HETATM   78  H   UNL     1      -7.935   0.028   1.650  1.00  0.00     0.217 HD
ENDBRANCH  73  77
BRANCH  74  79
HETATM   79  O   UNL     1      -7.838   3.693   1.266  1.00  0.00    -0.356 OA
HETATM   80  H   UNL     1      -8.529   3.072   1.576  1.00  0.00     0.218 HD
ENDBRANCH  74  79
BRANCH  75  81
HETATM   81  O   UNL     1      -5.557   4.824   0.255  1.00  0.00    -0.358 OA
HETATM   82  H   UNL     1      -6.435   5.159   0.527  1.00  0.00     0.217 HD
ENDBRANCH  75  81
ENDBRANCH  69  71
ENDBRANCH  68  69
ENDBRANCH   2  68
TORSDOF 31
