MODEL 1
REMARK VINA RESULT:      -7.4      0.000      0.000
REMARK  15 active torsions:
REMARK  status: ('A' for Active; 'I' for Inactive)
REMARK    1  A    between atoms: O_2  and  C_14 
REMARK    2  A    between atoms: O_2  and  C_19 
REMARK    3  A    between atoms: O_4  and  C_15 
REMARK    4  A    between atoms: O_5  and  C_16 
REMARK    5  A    between atoms: O_6  and  C_17 
REMARK    6  A    between atoms: O_7  and  C_20 
REMARK    7  A    between atoms: O_8  and  C_21 
REMARK    8  A    between atoms: O_9  and  C_22 
REMARK    9  A    between atoms: O_10  and  C_24 
REMARK   10  A    between atoms: O_10  and  C_26 
REMARK   11  A    between atoms: O_12  and  C_32 
REMARK   12  A    between atoms: O_13  and  C_34 
REMARK   13  A    between atoms: C_18  and  C_23 
REMARK   14  A    between atoms: C_26  and  C_27 
REMARK   15  A    between atoms: C_28  and  C_29 
ROOT
HETATM    1  O   UNK     0     -10.333  -9.382  -0.516  0.00  0.00    -0.351 OA
HETATM    2  C   UNK     0      -9.114  -9.074   0.155  0.00  0.00     0.292 C 
HETATM    3  C   UNK     0      -8.282 -10.339   0.352  0.00  0.00     0.204 C 
HETATM    4  C   UNK     0      -9.084 -11.429   1.062  0.00  0.00     0.183 C 
HETATM    5  C   UNK     0     -10.453 -11.622   0.409  0.00  0.00     0.178 C 
HETATM    6  C   UNK     0     -11.161 -10.275   0.230  0.00  0.00     0.155 C 
ENDROOT
BRANCH   2   7
HETATM    7  O   UNK     0      -8.348  -8.160  -0.629  0.00  0.00    -0.346 OA
BRANCH   7   8
HETATM    8  C   UNK     0      -9.075  -6.960  -0.889  0.00  0.00     0.211 C 
HETATM    9  C   UNK     0      -9.249  -6.785  -2.400  0.00  0.00     0.185 C 
HETATM   10  C   UNK     0      -9.783  -5.392  -2.730  0.00  0.00     0.205 C 
HETATM   11  C   UNK     0      -8.901  -4.332  -2.069  0.00  0.00     0.304 C 
HETATM   12  O   UNK     0      -8.878  -4.538  -0.656  0.00  0.00    -0.326 OA
HETATM   13  C   UNK     0      -8.292  -5.787  -0.290  0.00  0.00     0.291 C 
BRANCH   9  14
HETATM   14  O   UNK     0     -10.152  -7.760  -2.912  0.00  0.00    -0.390 OA
HETATM   15  H   UNK     0     -10.887  -7.841  -2.281  0.00  0.00     0.210 HD
ENDBRANCH   9  14
BRANCH  10  16
HETATM   16  O   UNK     0     -11.114  -5.272  -2.219  0.00  0.00    -0.388 OA
HETATM   17  H   UNK     0     -11.359  -6.114  -1.800  0.00  0.00     0.210 HD
ENDBRANCH  10  16
BRANCH  11  18
HETATM   18  O   UNK     0      -9.426  -3.045  -2.381  0.00  0.00    -0.283 OA
BRANCH  18  19
HETATM   19  C   UNK     0      -8.813  -2.389  -3.407  0.00  0.00     0.285 C 
HETATM   20  O   UNK     0      -9.332  -1.607  -4.186  0.00  0.00    -0.260 OA
BRANCH  19  21
HETATM   21  C   UNK     0      -7.387  -2.792  -3.415  0.00  0.00     0.083 C 
HETATM   22  C   UNK     0      -6.761  -2.979  -4.586  0.00  0.00     0.017 C 
BRANCH  22  23
HETATM   23  C   UNK     0      -5.353  -3.388  -4.727  0.00  0.00    -0.033 A 
HETATM   24  C   UNK     0      -4.623  -3.006  -5.852  0.00  0.00     0.050 A 
HETATM   25  C   UNK     0      -3.289  -3.392  -5.982  0.00  0.00     0.099 A 
HETATM   26  C   UNK     0      -2.685  -4.160  -4.987  0.00  0.00     0.098 A 
HETATM   27  C   UNK     0      -3.414  -4.543  -3.862  0.00  0.00     0.040 A 
HETATM   28  C   UNK     0      -4.749  -4.157  -3.731  0.00  0.00     0.014 A 
BRANCH  25  29
HETATM   29  O   UNK     0      -2.587  -3.013  -7.086  0.00  0.00    -0.358 OA
HETATM   30  H   UNK     0      -2.895  -3.528  -7.851  0.00  0.00     0.217 HD
ENDBRANCH  25  29
BRANCH  26  31
HETATM   31  O   UNK     0      -1.383  -4.545  -5.104  0.00  0.00    -0.358 OA
HETATM   32  H   UNK     0      -1.306  -5.482  -4.854  0.00  0.00     0.217 HD
ENDBRANCH  26  31
ENDBRANCH  22  23
ENDBRANCH  19  21
ENDBRANCH  18  19
ENDBRANCH  11  18
BRANCH  13  33
HETATM   33  O   UNK     0      -8.308  -5.930   1.130  0.00  0.00    -0.368 OA
HETATM   34  H   UNK     0      -8.076  -5.064   1.507  0.00  0.00     0.212 HD
ENDBRANCH  13  33
ENDBRANCH   7   8
ENDBRANCH   2   7
BRANCH   6  35
HETATM   35  C   UNK     0     -12.477 -10.425  -0.527  0.00  0.00     0.030 C 
HETATM   36  C   UNK     0     -13.609  -9.706   0.182  0.00  0.00     0.007 C 
ENDBRANCH   6  35
BRANCH   3  37
HETATM   37  O   UNK     0      -7.137 -10.012   1.140  0.00  0.00    -0.388 OA
HETATM   38  H   UNK     0      -6.432  -9.717   0.539  0.00  0.00     0.210 HD
ENDBRANCH   3  37
BRANCH   5  39
HETATM   39  O   UNK     0     -11.259 -12.463   1.231  0.00  0.00    -0.390 OA
HETATM   40  H   UNK     0     -10.762 -13.280   1.404  0.00  0.00     0.210 HD
ENDBRANCH   5  39
BRANCH   4  41
HETATM   41  O   UNK     0      -8.341 -12.646   0.979  0.00  0.00    -0.390 OA
HETATM   42  H   UNK     0      -7.439 -12.431   0.686  0.00  0.00     0.210 HD
ENDBRANCH   4  41
TORSDOF 15
ENDMDL
MODEL 2
REMARK VINA RESULT:      -7.1      1.912      3.088
REMARK  15 active torsions:
REMARK  status: ('A' for Active; 'I' for Inactive)
REMARK    1  A    between atoms: O_2  and  C_14 
REMARK    2  A    between atoms: O_2  and  C_19 
REMARK    3  A    between atoms: O_4  and  C_15 
REMARK    4  A    between atoms: O_5  and  C_16 
REMARK    5  A    between atoms: O_6  and  C_17 
REMARK    6  A    between atoms: O_7  and  C_20 
REMARK    7  A    between atoms: O_8  and  C_21 
REMARK    8  A    between atoms: O_9  and  C_22 
REMARK    9  A    between atoms: O_10  and  C_24 
REMARK   10  A    between atoms: O_10  and  C_26 
REMARK   11  A    between atoms: O_12  and  C_32 
REMARK   12  A    between atoms: O_13  and  C_34 
REMARK   13  A    between atoms: C_18  and  C_23 
REMARK   14  A    between atoms: C_26  and  C_27 
REMARK   15  A    between atoms: C_28  and  C_29 
ROOT
HETATM    1  O   UNK     0      -9.244  -9.377   1.474  0.00  0.00    -0.351 OA
HETATM    2  C   UNK     0     -10.085  -8.662   0.573  0.00  0.00     0.292 C 
HETATM    3  C   UNK     0     -10.798  -9.630  -0.370  0.00  0.00     0.204 C 
HETATM    4  C   UNK     0      -9.804 -10.540  -1.090  0.00  0.00     0.183 C 
HETATM    5  C   UNK     0      -8.815 -11.167  -0.107  0.00  0.00     0.178 C 
HETATM    6  C   UNK     0      -8.208 -10.097   0.805  0.00  0.00     0.155 C 
ENDROOT
BRANCH   2   7
HETATM    7  O   UNK     0     -11.080  -7.947   1.305  0.00  0.00    -0.346 OA
BRANCH   7   8
HETATM    8  C   UNK     0     -10.983  -6.542   1.079  0.00  0.00     0.211 C 
HETATM    9  C   UNK     0     -12.004  -6.123   0.017  0.00  0.00     0.185 C 
HETATM   10  C   UNK     0     -11.754  -4.689  -0.444  0.00  0.00     0.205 C 
HETATM   11  C   UNK     0     -10.296  -4.532  -0.875  0.00  0.00     0.304 C 
HETATM   12  O   UNK     0      -9.433  -4.865   0.213  0.00  0.00    -0.326 OA
HETATM   13  C   UNK     0      -9.556  -6.229   0.616  0.00  0.00     0.291 C 
BRANCH   9  14
HETATM   14  O   UNK     0     -13.327  -6.220   0.536  0.00  0.00    -0.390 OA
HETATM   15  H   UNK     0     -13.805  -5.415   0.271  0.00  0.00     0.210 HD
ENDBRANCH   9  14
BRANCH  10  16
HETATM   16  O   UNK     0     -12.014  -3.798   0.646  0.00  0.00    -0.388 OA
HETATM   17  H   UNK     0     -12.818  -3.292   0.443  0.00  0.00     0.210 HD
ENDBRANCH  10  16
BRANCH  11  18
HETATM   18  O   UNK     0     -10.086  -3.185  -1.289  0.00  0.00    -0.283 OA
BRANCH  18  19
HETATM   19  C   UNK     0     -10.151  -2.962  -2.632  0.00  0.00     0.285 C 
HETATM   20  O   UNK     0     -11.078  -2.452  -3.241  0.00  0.00    -0.260 OA
BRANCH  19  21
HETATM   21  C   UNK     0      -8.889  -3.450  -3.235  0.00  0.00     0.083 C 
HETATM   22  C   UNK     0      -7.813  -2.651  -3.249  0.00  0.00     0.017 C 
BRANCH  22  23
HETATM   23  C   UNK     0      -6.506  -3.017  -3.826  0.00  0.00    -0.033 A 
HETATM   24  C   UNK     0      -5.598  -3.766  -3.079  0.00  0.00     0.050 A 
HETATM   25  C   UNK     0      -4.363  -4.113  -3.628  0.00  0.00     0.099 A 
HETATM   26  C   UNK     0      -4.038  -3.711  -4.923  0.00  0.00     0.098 A 
HETATM   27  C   UNK     0      -4.946  -2.961  -5.670  0.00  0.00     0.040 A 
HETATM   28  C   UNK     0      -6.181  -2.614  -5.122  0.00  0.00     0.014 A 
BRANCH  25  29
HETATM   29  O   UNK     0      -3.484  -4.844  -2.888  0.00  0.00    -0.358 OA
HETATM   30  H   UNK     0      -3.912  -5.112  -2.058  0.00  0.00     0.217 HD
ENDBRANCH  25  29
BRANCH  26  31
HETATM   31  O   UNK     0      -2.834  -4.042  -5.469  0.00  0.00    -0.358 OA
HETATM   32  H   UNK     0      -2.124  -3.687  -4.908  0.00  0.00     0.217 HD
ENDBRANCH  26  31
ENDBRANCH  22  23
ENDBRANCH  19  21
ENDBRANCH  18  19
ENDBRANCH  11  18
BRANCH  13  33
HETATM   33  O   UNK     0      -8.675  -6.491   1.709  0.00  0.00    -0.368 OA
HETATM   34  H   UNK     0      -8.436  -7.433   1.664  0.00  0.00     0.212 HD
ENDBRANCH  13  33
ENDBRANCH   7   8
ENDBRANCH   2   7
BRANCH   6  35
HETATM   35  C   UNK     0      -7.308 -10.710   1.874  0.00  0.00     0.030 C 
HETATM   36  C   UNK     0      -7.924 -11.966   2.462  0.00  0.00     0.007 C 
ENDBRANCH   6  35
BRANCH   3  37
HETATM   37  O   UNK     0     -11.524  -8.871  -1.337  0.00  0.00    -0.388 OA
HETATM   38  H   UNK     0     -12.412  -9.258  -1.418  0.00  0.00     0.210 HD
ENDBRANCH   3  37
BRANCH   5  39
HETATM   39  O   UNK     0      -7.767 -11.809  -0.829  0.00  0.00    -0.390 OA
HETATM   40  H   UNK     0      -7.744 -11.433  -1.725  0.00  0.00     0.210 HD
ENDBRANCH   5  39
BRANCH   4  41
HETATM   41  O   UNK     0     -10.545 -11.572  -1.744  0.00  0.00    -0.390 OA
HETATM   42  H   UNK     0     -10.875 -12.184  -1.064  0.00  0.00     0.210 HD
ENDBRANCH   4  41
TORSDOF 15
ENDMDL
MODEL 3
REMARK VINA RESULT:      -7.0      1.992      3.156
REMARK  15 active torsions:
REMARK  status: ('A' for Active; 'I' for Inactive)
REMARK    1  A    between atoms: O_2  and  C_14 
REMARK    2  A    between atoms: O_2  and  C_19 
REMARK    3  A    between atoms: O_4  and  C_15 
REMARK    4  A    between atoms: O_5  and  C_16 
REMARK    5  A    between atoms: O_6  and  C_17 
REMARK    6  A    between atoms: O_7  and  C_20 
REMARK    7  A    between atoms: O_8  and  C_21 
REMARK    8  A    between atoms: O_9  and  C_22 
REMARK    9  A    between atoms: O_10  and  C_24 
REMARK   10  A    between atoms: O_10  and  C_26 
REMARK   11  A    between atoms: O_12  and  C_32 
REMARK   12  A    between atoms: O_13  and  C_34 
REMARK   13  A    between atoms: C_18  and  C_23 
REMARK   14  A    between atoms: C_26  and  C_27 
REMARK   15  A    between atoms: C_28  and  C_29 
ROOT
HETATM    1  O   UNK     0     -13.693  -9.605   0.125  0.00  0.00    -0.351 OA
HETATM    2  C   UNK     0     -12.387 -10.068   0.458  0.00  0.00     0.292 C 
HETATM    3  C   UNK     0     -11.846 -10.973  -0.647  0.00  0.00     0.204 C 
HETATM    4  C   UNK     0     -12.813 -12.115  -0.956  0.00  0.00     0.183 C 
HETATM    5  C   UNK     0     -14.239 -11.595  -1.151  0.00  0.00     0.178 C 
HETATM    6  C   UNK     0     -14.638 -10.669   0.001  0.00  0.00     0.155 C 
ENDROOT
BRANCH   2   7
HETATM    7  O   UNK     0     -11.500  -8.958   0.591  0.00  0.00    -0.346 OA
BRANCH   7   8
HETATM    8  C   UNK     0     -11.532  -8.124  -0.566  0.00  0.00     0.211 C 
HETATM    9  C   UNK     0     -10.144  -8.089  -1.210  0.00  0.00     0.185 C 
HETATM   10  C   UNK     0     -10.068  -7.008  -2.286  0.00  0.00     0.205 C 
HETATM   11  C   UNK     0     -10.528  -5.670  -1.706  0.00  0.00     0.304 C 
HETATM   12  O   UNK     0     -11.863  -5.793  -1.213  0.00  0.00    -0.326 OA
HETATM   13  C   UNK     0     -11.967  -6.720  -0.133  0.00  0.00     0.291 C 
BRANCH   9  14
HETATM   14  O   UNK     0      -9.837  -9.350  -1.797  0.00  0.00    -0.390 OA
HETATM   15  H   UNK     0      -9.832 -10.012  -1.085  0.00  0.00     0.210 HD
ENDBRANCH   9  14
BRANCH  10  16
HETATM   16  O   UNK     0     -10.934  -7.368  -3.367  0.00  0.00    -0.388 OA
HETATM   17  H   UNK     0     -11.828  -7.044  -3.165  0.00  0.00     0.210 HD
ENDBRANCH  10  16
BRANCH  11  18
HETATM   18  O   UNK     0     -10.460  -4.683  -2.731  0.00  0.00    -0.283 OA
BRANCH  18  19
HETATM   19  C   UNK     0      -9.973  -3.468  -2.351  0.00  0.00     0.285 C 
HETATM   20  O   UNK     0     -10.429  -2.739  -1.485  0.00  0.00    -0.260 OA
BRANCH  19  21
HETATM   21  C   UNK     0      -8.780  -3.178  -3.179  0.00  0.00     0.083 C 
HETATM   22  C   UNK     0      -7.647  -3.863  -2.968  0.00  0.00     0.017 C 
BRANCH  22  23
HETATM   23  C   UNK     0      -6.394  -3.661  -3.717  0.00  0.00    -0.033 A 
HETATM   24  C   UNK     0      -5.193  -4.164  -3.218  0.00  0.00     0.050 A 
HETATM   25  C   UNK     0      -4.008  -3.974  -3.930  0.00  0.00     0.099 A 
HETATM   26  C   UNK     0      -4.026  -3.282  -5.141  0.00  0.00     0.098 A 
HETATM   27  C   UNK     0      -5.226  -2.779  -5.640  0.00  0.00     0.040 A 
HETATM   28  C   UNK     0      -6.411  -2.969  -4.928  0.00  0.00     0.014 A 
BRANCH  25  29
HETATM   29  O   UNK     0      -2.841  -4.469  -3.431  0.00  0.00    -0.358 OA
HETATM   30  H   UNK     0      -2.618  -5.291  -3.901  0.00  0.00     0.217 HD
ENDBRANCH  25  29
BRANCH  26  31
HETATM   31  O   UNK     0      -2.875  -3.090  -5.844  0.00  0.00    -0.358 OA
HETATM   32  H   UNK     0      -3.099  -2.867  -6.764  0.00  0.00     0.217 HD
ENDBRANCH  26  31
ENDBRANCH  22  23
ENDBRANCH  19  21
ENDBRANCH  18  19
ENDBRANCH  11  18
BRANCH  13  33
HETATM   33  O   UNK     0     -13.324  -6.799   0.306  0.00  0.00    -0.368 OA
HETATM   34  H   UNK     0     -13.885  -6.636  -0.471  0.00  0.00     0.212 HD
ENDBRANCH  13  33
ENDBRANCH   7   8
ENDBRANCH   2   7
BRANCH   6  35
HETATM   35  C   UNK     0     -16.010 -10.041  -0.228  0.00  0.00     0.030 C 
HETATM   36  C   UNK     0     -16.181  -8.770   0.583  0.00  0.00     0.007 C 
ENDBRANCH   6  35
BRANCH   3  37
HETATM   37  O   UNK     0     -10.599 -11.519  -0.219  0.00  0.00    -0.388 OA
HETATM   38  H   UNK     0      -9.943 -11.357  -0.919  0.00  0.00     0.210 HD
ENDBRANCH   3  37
BRANCH   5  39
HETATM   39  O   UNK     0     -15.145 -12.694  -1.197  0.00  0.00    -0.390 OA
HETATM   40  H   UNK     0     -15.089 -13.094  -2.081  0.00  0.00     0.210 HD
ENDBRANCH   5  39
BRANCH   4  41
HETATM   41  O   UNK     0     -12.371 -12.754  -2.155  0.00  0.00    -0.390 OA
HETATM   42  H   UNK     0     -11.462 -13.067  -2.013  0.00  0.00     0.210 HD
ENDBRANCH   4  41
TORSDOF 15
ENDMDL
MODEL 4
REMARK VINA RESULT:      -7.0      1.895      2.495
REMARK  15 active torsions:
REMARK  status: ('A' for Active; 'I' for Inactive)
REMARK    1  A    between atoms: O_2  and  C_14 
REMARK    2  A    between atoms: O_2  and  C_19 
REMARK    3  A    between atoms: O_4  and  C_15 
REMARK    4  A    between atoms: O_5  and  C_16 
REMARK    5  A    between atoms: O_6  and  C_17 
REMARK    6  A    between atoms: O_7  and  C_20 
REMARK    7  A    between atoms: O_8  and  C_21 
REMARK    8  A    between atoms: O_9  and  C_22 
REMARK    9  A    between atoms: O_10  and  C_24 
REMARK   10  A    between atoms: O_10  and  C_26 
REMARK   11  A    between atoms: O_12  and  C_32 
REMARK   12  A    between atoms: O_13  and  C_34 
REMARK   13  A    between atoms: C_18  and  C_23 
REMARK   14  A    between atoms: C_26  and  C_27 
REMARK   15  A    between atoms: C_28  and  C_29 
ROOT
HETATM    1  O   UNK     0     -13.126 -10.112  -1.672  0.00  0.00    -0.351 OA
HETATM    2  C   UNK     0     -12.124  -9.525  -0.845  0.00  0.00     0.292 C 
HETATM    3  C   UNK     0     -11.313 -10.611  -0.142  0.00  0.00     0.204 C 
HETATM    4  C   UNK     0     -12.217 -11.574   0.626  0.00  0.00     0.183 C 
HETATM    5  C   UNK     0     -13.375 -12.061  -0.247  0.00  0.00     0.178 C 
HETATM    6  C   UNK     0     -14.073 -10.879  -0.926  0.00  0.00     0.155 C 
ENDROOT
BRANCH   2   7
HETATM    7  O   UNK     0     -11.228  -8.755  -1.646  0.00  0.00    -0.346 OA
BRANCH   7   8
HETATM    8  C   UNK     0     -11.536  -7.363  -1.579  0.00  0.00     0.211 C 
HETATM    9  C   UNK     0     -12.001  -6.876  -2.955  0.00  0.00     0.185 C 
HETATM   10  C   UNK     0     -12.084  -5.352  -2.994  0.00  0.00     0.205 C 
HETATM   11  C   UNK     0     -10.758  -4.751  -2.527  0.00  0.00     0.304 C 
HETATM   12  O   UNK     0     -10.464  -5.202  -1.205  0.00  0.00    -0.326 OA
HETATM   13  C   UNK     0     -10.275  -6.615  -1.134  0.00  0.00     0.291 C 
BRANCH   9  14
HETATM   14  O   UNK     0     -13.280  -7.419  -3.267  0.00  0.00    -0.390 OA
HETATM   15  H   UNK     0     -13.362  -7.439  -4.236  0.00  0.00     0.210 HD
ENDBRANCH   9  14
BRANCH  10  16
HETATM   16  O   UNK     0     -13.125  -4.921  -2.112  0.00  0.00    -0.388 OA
HETATM   17  H   UNK     0     -12.861  -5.129  -1.201  0.00  0.00     0.210 HD
ENDBRANCH  10  16
BRANCH  11  18
HETATM   18  O   UNK     0     -10.866  -3.330  -2.562  0.00  0.00    -0.283 OA
BRANCH  18  19
HETATM   19  C   UNK     0     -10.550  -2.742  -3.750  0.00  0.00     0.285 C 
HETATM   20  O   UNK     0     -11.239  -1.957  -4.381  0.00  0.00    -0.260 OA
BRANCH  19  21
HETATM   21  C   UNK     0      -9.208  -3.225  -4.153  0.00  0.00     0.083 C 
HETATM   22  C   UNK     0      -8.118  -2.702  -3.575  0.00  0.00     0.017 C 
BRANCH  22  23
HETATM   23  C   UNK     0      -6.733  -3.091  -3.894  0.00  0.00    -0.033 A 
HETATM   24  C   UNK     0      -6.174  -2.739  -5.122  0.00  0.00     0.050 A 
HETATM   25  C   UNK     0      -4.862  -3.106  -5.423  0.00  0.00     0.099 A 
HETATM   26  C   UNK     0      -4.109  -3.824  -4.493  0.00  0.00     0.098 A 
HETATM   27  C   UNK     0      -4.667  -4.176  -3.265  0.00  0.00     0.040 A 
HETATM   28  C   UNK     0      -5.979  -3.809  -2.965  0.00  0.00     0.014 A 
BRANCH  25  29
HETATM   29  O   UNK     0      -4.328  -2.757  -6.626  0.00  0.00    -0.358 OA
HETATM   30  H   UNK     0      -3.423  -2.428  -6.489  0.00  0.00     0.217 HD
ENDBRANCH  25  29
BRANCH  26  31
HETATM   31  O   UNK     0      -2.827  -4.188  -4.776  0.00  0.00    -0.358 OA
HETATM   32  H   UNK     0      -2.483  -3.614  -5.481  0.00  0.00     0.217 HD
ENDBRANCH  26  31
ENDBRANCH  22  23
ENDBRANCH  19  21
ENDBRANCH  18  19
ENDBRANCH  11  18
BRANCH  13  33
HETATM   33  O   UNK     0      -9.993  -6.997   0.213  0.00  0.00    -0.368 OA
HETATM   34  H   UNK     0     -10.785  -6.794   0.740  0.00  0.00     0.212 HD
ENDBRANCH  13  33
ENDBRANCH   7   8
ENDBRANCH   2   7
BRANCH   6  35
HETATM   35  C   UNK     0     -15.155 -11.344  -1.896  0.00  0.00     0.030 C 
HETATM   36  C   UNK     0     -15.091 -10.579  -3.206  0.00  0.00     0.007 C 
ENDBRANCH   6  35
BRANCH   3  37
HETATM   37  O   UNK     0     -10.412  -9.985   0.772  0.00  0.00    -0.388 OA
HETATM   38  H   UNK     0     -10.837  -9.960   1.646  0.00  0.00     0.210 HD
ENDBRANCH   3  37
BRANCH   5  39
HETATM   39  O   UNK     0     -14.321 -12.756   0.561  0.00  0.00    -0.390 OA
HETATM   40  H   UNK     0     -15.120 -12.904   0.028  0.00  0.00     0.210 HD
ENDBRANCH   5  39
BRANCH   4  41
HETATM   41  O   UNK     0     -11.426 -12.690   1.034  0.00  0.00    -0.390 OA
HETATM   42  H   UNK     0     -11.899 -13.152   1.747  0.00  0.00     0.210 HD
ENDBRANCH   4  41
TORSDOF 15
ENDMDL
MODEL 5
REMARK VINA RESULT:      -6.9      4.037      7.980
REMARK  15 active torsions:
REMARK  status: ('A' for Active; 'I' for Inactive)
REMARK    1  A    between atoms: O_2  and  C_14 
REMARK    2  A    between atoms: O_2  and  C_19 
REMARK    3  A    between atoms: O_4  and  C_15 
REMARK    4  A    between atoms: O_5  and  C_16 
REMARK    5  A    between atoms: O_6  and  C_17 
REMARK    6  A    between atoms: O_7  and  C_20 
REMARK    7  A    between atoms: O_8  and  C_21 
REMARK    8  A    between atoms: O_9  and  C_22 
REMARK    9  A    between atoms: O_10  and  C_24 
REMARK   10  A    between atoms: O_10  and  C_26 
REMARK   11  A    between atoms: O_12  and  C_32 
REMARK   12  A    between atoms: O_13  and  C_34 
REMARK   13  A    between atoms: C_18  and  C_23 
REMARK   14  A    between atoms: C_26  and  C_27 
REMARK   15  A    between atoms: C_28  and  C_29 
ROOT
HETATM    1  O   UNK     0      -7.134  -4.373  -1.969  0.00  0.00    -0.351 OA
HETATM    2  C   UNK     0      -7.194  -3.646  -3.193  0.00  0.00     0.292 C 
HETATM    3  C   UNK     0      -8.323  -2.619  -3.146  0.00  0.00     0.204 C 
HETATM    4  C   UNK     0      -9.656  -3.271  -2.784  0.00  0.00     0.183 C 
HETATM    5  C   UNK     0      -9.517  -4.171  -1.556  0.00  0.00     0.178 C 
HETATM    6  C   UNK     0      -8.325  -5.120  -1.714  0.00  0.00     0.155 C 
ENDROOT
BRANCH   2   7
HETATM    7  O   UNK     0      -5.968  -2.945  -3.399  0.00  0.00    -0.346 OA
BRANCH   7   8
HETATM    8  C   UNK     0      -5.137  -3.616  -4.346  0.00  0.00     0.211 C 
HETATM    9  C   UNK     0      -3.875  -4.127  -3.645  0.00  0.00     0.185 C 
HETATM   10  C   UNK     0      -2.845  -4.612  -4.663  0.00  0.00     0.205 C 
HETATM   11  C   UNK     0      -2.592  -3.520  -5.702  0.00  0.00     0.304 C 
HETATM   12  O   UNK     0      -3.817  -3.180  -6.352  0.00  0.00    -0.326 OA
HETATM   13  C   UNK     0      -4.780  -2.625  -5.458  0.00  0.00     0.291 C 
BRANCH   9  14
HETATM   14  O   UNK     0      -4.196  -5.198  -2.763  0.00  0.00    -0.390 OA
HETATM   15  H   UNK     0      -3.700  -5.981  -3.059  0.00  0.00     0.210 HD
ENDBRANCH   9  14
BRANCH  10  16
HETATM   16  O   UNK     0      -3.358  -5.773  -5.326  0.00  0.00    -0.388 OA
HETATM   17  H   UNK     0      -2.607  -6.299  -5.647  0.00  0.00     0.210 HD
ENDBRANCH  10  16
BRANCH  11  18
HETATM   18  O   UNK     0      -1.638  -4.001  -6.644  0.00  0.00    -0.283 OA
BRANCH  18  19
HETATM   19  C   UNK     0      -1.515  -3.268  -7.787  0.00  0.00     0.285 C 
HETATM   20  O   UNK     0      -1.287  -2.072  -7.865  0.00  0.00    -0.260 OA
BRANCH  19  21
HETATM   21  C   UNK     0      -1.709  -4.183  -8.936  0.00  0.00     0.083 C 
HETATM   22  C   UNK     0      -1.147  -3.888 -10.117  0.00  0.00     0.017 C 
BRANCH  22  23
HETATM   23  C   UNK     0      -1.272  -4.711 -11.333  0.00  0.00    -0.033 A 
HETATM   24  C   UNK     0      -1.304  -6.102 -11.236  0.00  0.00     0.050 A 
HETATM   25  C   UNK     0      -1.425  -6.879 -12.388  0.00  0.00     0.099 A 
HETATM   26  C   UNK     0      -1.516  -6.264 -13.637  0.00  0.00     0.098 A 
HETATM   27  C   UNK     0      -1.485  -4.874 -13.735  0.00  0.00     0.040 A 
HETATM   28  C   UNK     0      -1.364  -4.096 -12.582  0.00  0.00     0.014 A 
BRANCH  25  29
HETATM   29  O   UNK     0      -1.454  -8.236 -12.280  0.00  0.00    -0.358 OA
HETATM   30  H   UNK     0      -0.816  -8.515 -11.602  0.00  0.00     0.217 HD
ENDBRANCH  25  29
BRANCH  26  31
HETATM   31  O   UNK     0      -1.634  -7.013 -14.769  0.00  0.00    -0.358 OA
HETATM   32  H   UNK     0      -1.098  -6.608 -15.473  0.00  0.00     0.217 HD
ENDBRANCH  26  31
ENDBRANCH  22  23
ENDBRANCH  19  21
ENDBRANCH  18  19
ENDBRANCH  11  18
BRANCH  13  33
HETATM   33  O   UNK     0      -5.979  -2.316  -6.170  0.00  0.00    -0.368 OA
HETATM   34  H   UNK     0      -6.713  -2.386  -5.537  0.00  0.00     0.212 HD
ENDBRANCH  13  33
ENDBRANCH   7   8
ENDBRANCH   2   7
BRANCH   6  35
HETATM   35  C   UNK     0      -8.089  -5.946  -0.453  0.00  0.00     0.030 C 
HETATM   36  C   UNK     0      -8.177  -7.433  -0.741  0.00  0.00     0.007 C 
ENDBRANCH   6  35
BRANCH   3  37
HETATM   37  O   UNK     0      -8.434  -2.006  -4.431  0.00  0.00    -0.388 OA
HETATM   38  H   UNK     0      -8.472  -1.043  -4.304  0.00  0.00     0.210 HD
ENDBRANCH   3  37
BRANCH   5  39
HETATM   39  O   UNK     0     -10.704  -4.942  -1.393  0.00  0.00    -0.390 OA
HETATM   40  H   UNK     0     -10.573  -5.541  -0.638  0.00  0.00     0.210 HD
ENDBRANCH   5  39
BRANCH   4  41
HETATM   41  O   UNK     0     -10.595  -2.230  -2.509  0.00  0.00    -0.390 OA
HETATM   42  H   UNK     0     -11.131  -2.087  -3.307  0.00  0.00     0.210 HD
ENDBRANCH   4  41
TORSDOF 15
ENDMDL
MODEL 6
REMARK VINA RESULT:      -6.7      2.101      9.967
REMARK  15 active torsions:
REMARK  status: ('A' for Active; 'I' for Inactive)
REMARK    1  A    between atoms: O_2  and  C_14 
REMARK    2  A    between atoms: O_2  and  C_19 
REMARK    3  A    between atoms: O_4  and  C_15 
REMARK    4  A    between atoms: O_5  and  C_16 
REMARK    5  A    between atoms: O_6  and  C_17 
REMARK    6  A    between atoms: O_7  and  C_20 
REMARK    7  A    between atoms: O_8  and  C_21 
REMARK    8  A    between atoms: O_9  and  C_22 
REMARK    9  A    between atoms: O_10  and  C_24 
REMARK   10  A    between atoms: O_10  and  C_26 
REMARK   11  A    between atoms: O_12  and  C_32 
REMARK   12  A    between atoms: O_13  and  C_34 
REMARK   13  A    between atoms: C_18  and  C_23 
REMARK   14  A    between atoms: C_26  and  C_27 
REMARK   15  A    between atoms: C_28  and  C_29 
ROOT
HETATM    1  O   UNK     0      -3.498  -2.875  -6.077  0.00  0.00    -0.351 OA
HETATM    2  C   UNK     0      -4.557  -1.949  -5.845  0.00  0.00     0.292 C 
HETATM    3  C   UNK     0      -4.565  -0.869  -6.925  0.00  0.00     0.204 C 
HETATM    4  C   UNK     0      -3.203  -0.186  -7.042  0.00  0.00     0.183 C 
HETATM    5  C   UNK     0      -2.074  -1.215  -7.130  0.00  0.00     0.178 C 
HETATM    6  C   UNK     0      -2.209  -2.261  -6.020  0.00  0.00     0.155 C 
ENDROOT
BRANCH   2   7
HETATM    7  O   UNK     0      -5.811  -2.629  -5.892  0.00  0.00    -0.346 OA
BRANCH   7   8
HETATM    8  C   UNK     0      -6.399  -2.725  -4.595  0.00  0.00     0.211 C 
HETATM    9  C   UNK     0      -6.291  -4.166  -4.091  0.00  0.00     0.185 C 
HETATM   10  C   UNK     0      -7.136  -4.370  -2.836  0.00  0.00     0.205 C 
HETATM   11  C   UNK     0      -8.567  -3.899  -3.095  0.00  0.00     0.304 C 
HETATM   12  O   UNK     0      -8.559  -2.522  -3.475  0.00  0.00    -0.326 OA
HETATM   13  C   UNK     0      -7.865  -2.293  -4.701  0.00  0.00     0.291 C 
BRANCH   9  14
HETATM   14  O   UNK     0      -4.935  -4.488  -3.795  0.00  0.00    -0.390 OA
HETATM   15  H   UNK     0      -4.922  -5.383  -3.414  0.00  0.00     0.210 HD
ENDBRANCH   9  14
BRANCH  10  16
HETATM   16  O   UNK     0      -6.578  -3.596  -1.769  0.00  0.00    -0.388 OA
HETATM   17  H   UNK     0      -5.892  -3.015  -2.139  0.00  0.00     0.210 HD
ENDBRANCH  10  16
BRANCH  11  18
HETATM   18  O   UNK     0      -9.330  -4.088  -1.907  0.00  0.00    -0.283 OA
BRANCH  18  19
HETATM   19  C   UNK     0     -10.542  -4.691  -2.072  0.00  0.00     0.285 C 
HETATM   20  O   UNK     0     -11.601  -4.141  -2.328  0.00  0.00    -0.260 OA
BRANCH  19  21
HETATM   21  C   UNK     0     -10.353  -6.148  -1.884  0.00  0.00     0.083 C 
HETATM   22  C   UNK     0      -9.751  -6.597  -0.774  0.00  0.00     0.017 C 
BRANCH  22  23
HETATM   23  C   UNK     0      -9.497  -8.018  -0.475  0.00  0.00    -0.033 A 
HETATM   24  C   UNK     0      -9.825  -8.998  -1.412  0.00  0.00     0.050 A 
HETATM   25  C   UNK     0      -9.581 -10.342  -1.129  0.00  0.00     0.099 A 
HETATM   26  C   UNK     0      -9.010 -10.705   0.091  0.00  0.00     0.098 A 
HETATM   27  C   UNK     0      -8.683  -9.726   1.028  0.00  0.00     0.040 A 
HETATM   28  C   UNK     0      -8.926  -8.381   0.745  0.00  0.00     0.014 A 
BRANCH  25  29
HETATM   29  O   UNK     0      -9.906 -11.290  -2.051  0.00  0.00    -0.358 OA
HETATM   30  H   UNK     0      -9.190 -11.946  -2.098  0.00  0.00     0.217 HD
ENDBRANCH  25  29
BRANCH  26  31
HETATM   31  O   UNK     0      -8.770 -12.015   0.380  0.00  0.00    -0.358 OA
HETATM   32  H   UNK     0      -9.619 -12.480   0.475  0.00  0.00     0.217 HD
ENDBRANCH  26  31
ENDBRANCH  22  23
ENDBRANCH  19  21
ENDBRANCH  18  19
ENDBRANCH  11  18
BRANCH  13  33
HETATM   33  O   UNK     0      -7.890  -0.901  -5.017  0.00  0.00    -0.368 OA
HETATM   34  H   UNK     0      -8.803  -0.681  -5.268  0.00  0.00     0.212 HD
ENDBRANCH  13  33
ENDBRANCH   7   8
ENDBRANCH   2   7
BRANCH   6  35
HETATM   35  C   UNK     0      -1.167  -3.366  -6.156  0.00  0.00     0.030 C 
HETATM   36  C   UNK     0      -1.727  -4.712  -5.734  0.00  0.00     0.007 C 
ENDBRANCH   6  35
BRANCH   3  37
HETATM   37  O   UNK     0      -5.551   0.106  -6.586  0.00  0.00    -0.388 OA
HETATM   38  H   UNK     0      -5.543   0.219  -5.620  0.00  0.00     0.210 HD
ENDBRANCH   3  37
BRANCH   5  39
HETATM   39  O   UNK     0      -0.818  -0.556  -6.995  0.00  0.00    -0.390 OA
HETATM   40  H   UNK     0      -0.437  -0.806  -6.137  0.00  0.00     0.210 HD
ENDBRANCH   5  39
BRANCH   4  41
HETATM   41  O   UNK     0      -3.212   0.614  -8.225  0.00  0.00    -0.390 OA
HETATM   42  H   UNK     0      -2.781   0.109  -8.935  0.00  0.00     0.210 HD
ENDBRANCH   4  41
TORSDOF 15
ENDMDL
MODEL 7
REMARK VINA RESULT:      -6.7      4.518      8.558
REMARK  15 active torsions:
REMARK  status: ('A' for Active; 'I' for Inactive)
REMARK    1  A    between atoms: O_2  and  C_14 
REMARK    2  A    between atoms: O_2  and  C_19 
REMARK    3  A    between atoms: O_4  and  C_15 
REMARK    4  A    between atoms: O_5  and  C_16 
REMARK    5  A    between atoms: O_6  and  C_17 
REMARK    6  A    between atoms: O_7  and  C_20 
REMARK    7  A    between atoms: O_8  and  C_21 
REMARK    8  A    between atoms: O_9  and  C_22 
REMARK    9  A    between atoms: O_10  and  C_24 
REMARK   10  A    between atoms: O_10  and  C_26 
REMARK   11  A    between atoms: O_12  and  C_32 
REMARK   12  A    between atoms: O_13  and  C_34 
REMARK   13  A    between atoms: C_18  and  C_23 
REMARK   14  A    between atoms: C_26  and  C_27 
REMARK   15  A    between atoms: C_28  and  C_29 
ROOT
HETATM    1  O   UNK     0      -7.308  -3.016  -4.611  0.00  0.00    -0.351 OA
HETATM    2  C   UNK     0      -5.982  -3.395  -4.250  0.00  0.00     0.292 C 
HETATM    3  C   UNK     0      -6.011  -4.595  -3.306  0.00  0.00     0.204 C 
HETATM    4  C   UNK     0      -6.896  -4.328  -2.090  0.00  0.00     0.183 C 
HETATM    5  C   UNK     0      -8.258  -3.770  -2.509  0.00  0.00     0.178 C 
HETATM    6  C   UNK     0      -8.087  -2.604  -3.486  0.00  0.00     0.155 C 
ENDROOT
BRANCH   2   7
HETATM    7  O   UNK     0      -5.253  -3.771  -5.418  0.00  0.00    -0.346 OA
BRANCH   7   8
HETATM    8  C   UNK     0      -4.191  -2.856  -5.685  0.00  0.00     0.211 C 
HETATM    9  C   UNK     0      -4.591  -1.931  -6.838  0.00  0.00     0.185 C 
HETATM   10  C   UNK     0      -3.393  -1.121  -7.329  0.00  0.00     0.205 C 
HETATM   11  C   UNK     0      -2.231  -2.061  -7.649  0.00  0.00     0.304 C 
HETATM   12  O   UNK     0      -1.884  -2.812  -6.484  0.00  0.00    -0.326 OA
HETATM   13  C   UNK     0      -2.941  -3.665  -6.045  0.00  0.00     0.291 C 
BRANCH   9  14
HETATM   14  O   UNK     0      -5.618  -1.036  -6.423  0.00  0.00    -0.390 OA
HETATM   15  H   UNK     0      -5.191  -0.286  -5.974  0.00  0.00     0.210 HD
ENDBRANCH   9  14
BRANCH  10  16
HETATM   16  O   UNK     0      -2.989  -0.218  -6.295  0.00  0.00    -0.388 OA
HETATM   17  H   UNK     0      -3.688  -0.191  -5.621  0.00  0.00     0.210 HD
ENDBRANCH  10  16
BRANCH  11  18
HETATM   18  O   UNK     0      -1.124  -1.281  -8.092  0.00  0.00    -0.283 OA
BRANCH  18  19
HETATM   19  C   UNK     0      -0.564  -1.666  -9.273  0.00  0.00     0.285 C 
HETATM   20  O   UNK     0       0.471  -1.242  -9.762  0.00  0.00    -0.260 OA
BRANCH  19  21
HETATM   21  C   UNK     0      -1.437  -2.701  -9.873  0.00  0.00     0.083 C 
HETATM   22  C   UNK     0      -0.887  -3.805 -10.399  0.00  0.00     0.017 C 
BRANCH  22  23
HETATM   23  C   UNK     0      -1.645  -4.899 -11.031  0.00  0.00    -0.033 A 
HETATM   24  C   UNK     0      -3.039  -4.861 -11.054  0.00  0.00     0.050 A 
HETATM   25  C   UNK     0      -3.755  -5.897 -11.654  0.00  0.00     0.099 A 
HETATM   26  C   UNK     0      -3.076  -6.970 -12.232  0.00  0.00     0.098 A 
HETATM   27  C   UNK     0      -1.683  -7.009 -12.209  0.00  0.00     0.040 A 
HETATM   28  C   UNK     0      -0.967  -5.973 -11.609  0.00  0.00     0.014 A 
BRANCH  25  29
HETATM   29  O   UNK     0      -5.116  -5.849 -11.670  0.00  0.00    -0.358 OA
HETATM   30  H   UNK     0      -5.434  -6.135 -12.543  0.00  0.00     0.217 HD
ENDBRANCH  25  29
BRANCH  26  31
HETATM   31  O   UNK     0      -3.765  -7.988 -12.820  0.00  0.00    -0.358 OA
HETATM   32  H   UNK     0      -4.670  -8.006 -12.464  0.00  0.00     0.217 HD
ENDBRANCH  26  31
ENDBRANCH  22  23
ENDBRANCH  19  21
ENDBRANCH  18  19
ENDBRANCH  11  18
BRANCH  13  33
HETATM   33  O   UNK     0      -2.531  -4.378  -4.877  0.00  0.00    -0.368 OA
HETATM   34  H   UNK     0      -2.450  -5.314  -5.127  0.00  0.00     0.212 HD
ENDBRANCH  13  33
ENDBRANCH   7   8
ENDBRANCH   2   7
BRANCH   6  35
HETATM   35  C   UNK     0      -9.429  -2.107  -4.013  0.00  0.00     0.030 C 
HETATM   36  C   UNK     0      -9.526  -2.265  -5.519  0.00  0.00     0.007 C 
ENDBRANCH   6  35
BRANCH   3  37
HETATM   37  O   UNK     0      -4.679  -4.860  -2.867  0.00  0.00    -0.388 OA
HETATM   38  H   UNK     0      -4.705  -5.626  -2.268  0.00  0.00     0.210 HD
ENDBRANCH   3  37
BRANCH   5  39
HETATM   39  O   UNK     0      -8.959  -3.310  -1.357  0.00  0.00    -0.390 OA
HETATM   40  H   UNK     0      -8.845  -3.969  -0.651  0.00  0.00     0.210 HD
ENDBRANCH   5  39
BRANCH   4  41
HETATM   41  O   UNK     0      -7.079  -5.564  -1.398  0.00  0.00    -0.390 OA
HETATM   42  H   UNK     0      -7.709  -6.104  -1.905  0.00  0.00     0.210 HD
ENDBRANCH   4  41
TORSDOF 15
ENDMDL
MODEL 8
REMARK VINA RESULT:      -6.7      1.837      2.349
REMARK  15 active torsions:
REMARK  status: ('A' for Active; 'I' for Inactive)
REMARK    1  A    between atoms: O_2  and  C_14 
REMARK    2  A    between atoms: O_2  and  C_19 
REMARK    3  A    between atoms: O_4  and  C_15 
REMARK    4  A    between atoms: O_5  and  C_16 
REMARK    5  A    between atoms: O_6  and  C_17 
REMARK    6  A    between atoms: O_7  and  C_20 
REMARK    7  A    between atoms: O_8  and  C_21 
REMARK    8  A    between atoms: O_9  and  C_22 
REMARK    9  A    between atoms: O_10  and  C_24 
REMARK   10  A    between atoms: O_10  and  C_26 
REMARK   11  A    between atoms: O_12  and  C_32 
REMARK   12  A    between atoms: O_13  and  C_34 
REMARK   13  A    between atoms: C_18  and  C_23 
REMARK   14  A    between atoms: C_26  and  C_27 
REMARK   15  A    between atoms: C_28  and  C_29 
ROOT
HETATM    1  O   UNK     0     -11.457  -9.926  -1.377  0.00  0.00    -0.351 OA
HETATM    2  C   UNK     0     -10.266  -9.215  -1.048  0.00  0.00     0.292 C 
HETATM    3  C   UNK     0      -9.165 -10.186  -0.630  0.00  0.00     0.204 C 
HETATM    4  C   UNK     0      -9.630 -11.106   0.498  0.00  0.00     0.183 C 
HETATM    5  C   UNK     0     -10.989 -11.730   0.178  0.00  0.00     0.178 C 
HETATM    6  C   UNK     0     -11.985 -10.656  -0.268  0.00  0.00     0.155 C 
ENDROOT
BRANCH   2   7
HETATM    7  O   UNK     0      -9.806  -8.490  -2.188  0.00  0.00    -0.346 OA
BRANCH   7   8
HETATM    8  C   UNK     0     -10.165  -7.111  -2.109  0.00  0.00     0.211 C 
HETATM    9  C   UNK     0     -11.129  -6.769  -3.248  0.00  0.00     0.185 C 
HETATM   10  C   UNK     0     -11.327  -5.258  -3.359  0.00  0.00     0.205 C 
HETATM   11  C   UNK     0      -9.968  -4.565  -3.452  0.00  0.00     0.304 C 
HETATM   12  O   UNK     0      -9.185  -4.884  -2.301  0.00  0.00    -0.326 OA
HETATM   13  C   UNK     0      -8.885  -6.276  -2.207  0.00  0.00     0.291 C 
BRANCH   9  14
HETATM   14  O   UNK     0     -12.393  -7.388  -3.033  0.00  0.00    -0.390 OA
HETATM   15  H   UNK     0     -12.744  -7.054  -2.190  0.00  0.00     0.210 HD
ENDBRANCH   9  14
BRANCH  10  16
HETATM   16  O   UNK     0     -12.007  -4.792  -2.189  0.00  0.00    -0.388 OA
HETATM   17  H   UNK     0     -12.783  -4.280  -2.470  0.00  0.00     0.210 HD
ENDBRANCH  10  16
BRANCH  11  18
HETATM   18  O   UNK     0     -10.180  -3.159  -3.542  0.00  0.00    -0.283 OA
BRANCH  18  19
HETATM   19  C   UNK     0     -10.288  -2.657  -4.805  0.00  0.00     0.285 C 
HETATM   20  O   UNK     0     -11.306  -2.256  -5.345  0.00  0.00    -0.260 OA
BRANCH  19  21
HETATM   21  C   UNK     0      -8.940  -2.681  -5.419  0.00  0.00     0.083 C 
HETATM   22  C   UNK     0      -8.143  -1.609  -5.304  0.00  0.00     0.017 C 
BRANCH  22  23
HETATM   23  C   UNK     0      -6.789  -1.506  -5.877  0.00  0.00    -0.033 A 
HETATM   24  C   UNK     0      -6.463  -0.439  -6.713  0.00  0.00     0.050 A 
HETATM   25  C   UNK     0      -5.180  -0.342  -7.252  0.00  0.00     0.099 A 
HETATM   26  C   UNK     0      -4.223  -1.313  -6.954  0.00  0.00     0.098 A 
HETATM   27  C   UNK     0      -4.550  -2.381  -6.119  0.00  0.00     0.040 A 
HETATM   28  C   UNK     0      -5.833  -2.478  -5.579  0.00  0.00     0.014 A 
BRANCH  25  29
HETATM   29  O   UNK     0      -4.873   0.705  -8.067  0.00  0.00    -0.358 OA
HETATM   30  H   UNK     0      -4.269   0.399  -8.764  0.00  0.00     0.217 HD
ENDBRANCH  25  29
BRANCH  26  31
HETATM   31  O   UNK     0      -2.968  -1.230  -7.476  0.00  0.00    -0.358 OA
HETATM   32  H   UNK     0      -2.561  -2.114  -7.465  0.00  0.00     0.217 HD
ENDBRANCH  26  31
ENDBRANCH  22  23
ENDBRANCH  19  21
ENDBRANCH  18  19
ENDBRANCH  11  18
BRANCH  13  33
HETATM   33  O   UNK     0      -8.109  -6.525  -1.035  0.00  0.00    -0.368 OA
HETATM   34  H   UNK     0      -7.628  -5.705  -0.831  0.00  0.00     0.212 HD
ENDBRANCH  13  33
ENDBRANCH   7   8
ENDBRANCH   2   7
BRANCH   6  35
HETATM   35  C   UNK     0     -13.313 -11.265  -0.708  0.00  0.00     0.030 C 
HETATM   36  C   UNK     0     -13.101 -12.436  -1.649  0.00  0.00     0.007 C 
ENDBRANCH   6  35
BRANCH   3  37
HETATM   37  O   UNK     0      -8.038  -9.431  -0.185  0.00  0.00    -0.388 OA
HETATM   38  H   UNK     0      -7.910  -9.610   0.763  0.00  0.00     0.210 HD
ENDBRANCH   3  37
BRANCH   5  39
HETATM   39  O   UNK     0     -11.499 -12.381   1.338  0.00  0.00    -0.390 OA
HETATM   40  H   UNK     0     -11.089 -11.972   2.119  0.00  0.00     0.210 HD
ENDBRANCH   5  39
BRANCH   4  41
HETATM   41  O   UNK     0      -8.656 -12.139   0.654  0.00  0.00    -0.390 OA
HETATM   42  H   UNK     0      -8.741 -12.751  -0.096  0.00  0.00     0.210 HD
ENDBRANCH   4  41
TORSDOF 15
ENDMDL
MODEL 9
REMARK VINA RESULT:      -6.5      2.697      4.333
REMARK  15 active torsions:
REMARK  status: ('A' for Active; 'I' for Inactive)
REMARK    1  A    between atoms: O_2  and  C_14 
REMARK    2  A    between atoms: O_2  and  C_19 
REMARK    3  A    between atoms: O_4  and  C_15 
REMARK    4  A    between atoms: O_5  and  C_16 
REMARK    5  A    between atoms: O_6  and  C_17 
REMARK    6  A    between atoms: O_7  and  C_20 
REMARK    7  A    between atoms: O_8  and  C_21 
REMARK    8  A    between atoms: O_9  and  C_22 
REMARK    9  A    between atoms: O_10  and  C_24 
REMARK   10  A    between atoms: O_10  and  C_26 
REMARK   11  A    between atoms: O_12  and  C_32 
REMARK   12  A    between atoms: O_13  and  C_34 
REMARK   13  A    between atoms: C_18  and  C_23 
REMARK   14  A    between atoms: C_26  and  C_27 
REMARK   15  A    between atoms: C_28  and  C_29 
ROOT
HETATM    1  O   UNK     0      -9.067  -9.070   1.824  0.00  0.00    -0.351 OA
HETATM    2  C   UNK     0     -10.004  -8.551   0.883  0.00  0.00     0.292 C 
HETATM    3  C   UNK     0     -10.969  -9.647   0.436  0.00  0.00     0.204 C 
HETATM    4  C   UNK     0     -10.220 -10.869  -0.093  0.00  0.00     0.183 C 
HETATM    5  C   UNK     0      -9.115 -11.301   0.872  0.00  0.00     0.178 C 
HETATM    6  C   UNK     0      -8.250 -10.103   1.273  0.00  0.00     0.155 C 
ENDROOT
BRANCH   2   7
HETATM    7  O   UNK     0     -10.770  -7.509   1.488  0.00  0.00    -0.346 OA
BRANCH   7   8
HETATM    8  C   UNK     0     -10.437  -6.234   0.939  0.00  0.00     0.211 C 
HETATM    9  C   UNK     0     -10.923  -6.160  -0.511  0.00  0.00     0.185 C 
HETATM   10  C   UNK     0     -10.357  -4.927  -1.213  0.00  0.00     0.205 C 
HETATM   11  C   UNK     0      -8.838  -4.894  -1.054  0.00  0.00     0.304 C 
HETATM   12  O   UNK     0      -8.499  -4.880   0.333  0.00  0.00    -0.326 OA
HETATM   13  C   UNK     0      -8.917  -6.062   1.015  0.00  0.00     0.291 C 
BRANCH   9  14
HETATM   14  O   UNK     0     -12.345  -6.109  -0.557  0.00  0.00    -0.390 OA
HETATM   15  H   UNK     0     -12.627  -5.327  -0.052  0.00  0.00     0.210 HD
ENDBRANCH   9  14
BRANCH  10  16
HETATM   16  O   UNK     0     -10.913  -3.754  -0.610  0.00  0.00    -0.388 OA
HETATM   17  H   UNK     0     -10.184  -3.157  -0.373  0.00  0.00     0.210 HD
ENDBRANCH  10  16
BRANCH  11  18
HETATM   18  O   UNK     0      -8.337  -3.731  -1.706  0.00  0.00    -0.283 OA
BRANCH  18  19
HETATM   19  C   UNK     0      -7.258  -3.924  -2.516  0.00  0.00     0.285 C 
HETATM   20  O   UNK     0      -6.152  -4.313  -2.176  0.00  0.00    -0.260 OA
BRANCH  19  21
HETATM   21  C   UNK     0      -7.660  -3.575  -3.898  0.00  0.00     0.083 C 
HETATM   22  C   UNK     0      -7.921  -2.297  -4.207  0.00  0.00     0.017 C 
BRANCH  22  23
HETATM   23  C   UNK     0      -8.337  -1.826  -5.540  0.00  0.00    -0.033 A 
HETATM   24  C   UNK     0      -9.514  -2.304  -6.114  0.00  0.00     0.050 A 
HETATM   25  C   UNK     0      -9.908  -1.855  -7.375  0.00  0.00     0.099 A 
HETATM   26  C   UNK     0      -9.124  -0.927  -8.061  0.00  0.00     0.098 A 
HETATM   27  C   UNK     0      -7.947  -0.448  -7.487  0.00  0.00     0.040 A 
HETATM   28  C   UNK     0      -7.553  -0.897  -6.226  0.00  0.00     0.014 A 
BRANCH  25  29
HETATM   29  O   UNK     0     -11.059  -2.331  -7.925  0.00  0.00    -0.358 OA
HETATM   30  H   UNK     0     -11.107  -3.291  -7.783  0.00  0.00     0.217 HD
ENDBRANCH  25  29
BRANCH  26  31
HETATM   31  O   UNK     0      -9.498  -0.483  -9.293  0.00  0.00    -0.358 OA
HETATM   32  H   UNK     0      -8.873  -0.824  -9.956  0.00  0.00     0.217 HD
ENDBRANCH  26  31
ENDBRANCH  22  23
ENDBRANCH  19  21
ENDBRANCH  18  19
ENDBRANCH  11  18
BRANCH  13  33
HETATM   33  O   UNK     0      -8.554  -5.979   2.394  0.00  0.00    -0.368 OA
HETATM   34  H   UNK     0      -7.588  -6.070   2.441  0.00  0.00     0.212 HD
ENDBRANCH  13  33
ENDBRANCH   7   8
ENDBRANCH   2   7
BRANCH   6  35
HETATM   35  C   UNK     0      -7.214 -10.482   2.327  0.00  0.00     0.030 C 
HETATM   36  C   UNK     0      -7.488  -9.788   3.648  0.00  0.00     0.007 C 
ENDBRANCH   6  35
BRANCH   3  37
HETATM   37  O   UNK     0     -11.803  -9.124  -0.598  0.00  0.00    -0.388 OA
HETATM   38  H   UNK     0     -11.389  -8.314  -0.939  0.00  0.00     0.210 HD
ENDBRANCH   3  37
BRANCH   5  39
HETATM   39  O   UNK     0      -8.290 -12.279   0.244  0.00  0.00    -0.390 OA
HETATM   40  H   UNK     0      -7.721 -12.675   0.925  0.00  0.00     0.210 HD
ENDBRANCH   5  39
BRANCH   4  41
HETATM   41  O   UNK     0     -11.163 -11.932  -0.245  0.00  0.00    -0.390 OA
HETATM   42  H   UNK     0     -12.018 -11.629   0.103  0.00  0.00     0.210 HD
ENDBRANCH   4  41
TORSDOF 15
ENDMDL
