REMARK VINA RESULT:      -7.4      0.000      0.000
REMARK  15 active torsions:
REMARK  status: ('A' for Active; 'I' for Inactive)
REMARK    1  A    between atoms: O_2  and  C_14 
REMARK    2  A    between atoms: O_2  and  C_19 
REMARK    3  A    between atoms: O_4  and  C_15 
REMARK    4  A    between atoms: O_5  and  C_16 
REMARK    5  A    between atoms: O_6  and  C_17 
REMARK    6  A    between atoms: O_7  and  C_20 
REMARK    7  A    between atoms: O_8  and  C_21 
REMARK    8  A    between atoms: O_9  and  C_22 
REMARK    9  A    between atoms: O_10  and  C_24 
REMARK   10  A    between atoms: O_10  and  C_26 
REMARK   11  A    between atoms: O_12  and  C_32 
REMARK   12  A    between atoms: O_13  and  C_34 
REMARK   13  A    between atoms: C_18  and  C_23 
REMARK   14  A    between atoms: C_26  and  C_27 
REMARK   15  A    between atoms: C_28  and  C_29 
ROOT
HETATM    1  O   UNK     0     -10.333  -9.382  -0.516  0.00  0.00    -0.351 OA
HETATM    2  C   UNK     0      -9.114  -9.074   0.155  0.00  0.00     0.292 C 
HETATM    3  C   UNK     0      -8.282 -10.339   0.352  0.00  0.00     0.204 C 
HETATM    4  C   UNK     0      -9.084 -11.429   1.062  0.00  0.00     0.183 C 
HETATM    5  C   UNK     0     -10.453 -11.622   0.409  0.00  0.00     0.178 C 
HETATM    6  C   UNK     0     -11.161 -10.275   0.230  0.00  0.00     0.155 C 
ENDROOT
BRANCH   2   7
HETATM    7  O   UNK     0      -8.348  -8.160  -0.629  0.00  0.00    -0.346 OA
BRANCH   7   8
HETATM    8  C   UNK     0      -9.075  -6.960  -0.889  0.00  0.00     0.211 C 
HETATM    9  C   UNK     0      -9.249  -6.785  -2.400  0.00  0.00     0.185 C 
HETATM   10  C   UNK     0      -9.783  -5.392  -2.730  0.00  0.00     0.205 C 
HETATM   11  C   UNK     0      -8.901  -4.332  -2.069  0.00  0.00     0.304 C 
HETATM   12  O   UNK     0      -8.878  -4.538  -0.656  0.00  0.00    -0.326 OA
HETATM   13  C   UNK     0      -8.292  -5.787  -0.290  0.00  0.00     0.291 C 
BRANCH   9  14
HETATM   14  O   UNK     0     -10.152  -7.760  -2.912  0.00  0.00    -0.390 OA
HETATM   15  H   UNK     0     -10.887  -7.841  -2.281  0.00  0.00     0.210 HD
ENDBRANCH   9  14
BRANCH  10  16
HETATM   16  O   UNK     0     -11.114  -5.272  -2.219  0.00  0.00    -0.388 OA
HETATM   17  H   UNK     0     -11.359  -6.114  -1.800  0.00  0.00     0.210 HD
ENDBRANCH  10  16
BRANCH  11  18
HETATM   18  O   UNK     0      -9.426  -3.045  -2.381  0.00  0.00    -0.283 OA
BRANCH  18  19
HETATM   19  C   UNK     0      -8.813  -2.389  -3.407  0.00  0.00     0.285 C 
HETATM   20  O   UNK     0      -9.332  -1.607  -4.186  0.00  0.00    -0.260 OA
BRANCH  19  21
HETATM   21  C   UNK     0      -7.387  -2.792  -3.415  0.00  0.00     0.083 C 
HETATM   22  C   UNK     0      -6.761  -2.979  -4.586  0.00  0.00     0.017 C 
BRANCH  22  23
HETATM   23  C   UNK     0      -5.353  -3.388  -4.727  0.00  0.00    -0.033 A 
HETATM   24  C   UNK     0      -4.623  -3.006  -5.852  0.00  0.00     0.050 A 
HETATM   25  C   UNK     0      -3.289  -3.392  -5.982  0.00  0.00     0.099 A 
HETATM   26  C   UNK     0      -2.685  -4.160  -4.987  0.00  0.00     0.098 A 
HETATM   27  C   UNK     0      -3.414  -4.543  -3.862  0.00  0.00     0.040 A 
HETATM   28  C   UNK     0      -4.749  -4.157  -3.731  0.00  0.00     0.014 A 
BRANCH  25  29
HETATM   29  O   UNK     0      -2.587  -3.013  -7.086  0.00  0.00    -0.358 OA
HETATM   30  H   UNK     0      -2.895  -3.528  -7.851  0.00  0.00     0.217 HD
ENDBRANCH  25  29
BRANCH  26  31
HETATM   31  O   UNK     0      -1.383  -4.545  -5.104  0.00  0.00    -0.358 OA
HETATM   32  H   UNK     0      -1.306  -5.482  -4.854  0.00  0.00     0.217 HD
ENDBRANCH  26  31
ENDBRANCH  22  23
ENDBRANCH  19  21
ENDBRANCH  18  19
ENDBRANCH  11  18
BRANCH  13  33
HETATM   33  O   UNK     0      -8.308  -5.930   1.130  0.00  0.00    -0.368 OA
HETATM   34  H   UNK     0      -8.076  -5.064   1.507  0.00  0.00     0.212 HD
ENDBRANCH  13  33
ENDBRANCH   7   8
ENDBRANCH   2   7
BRANCH   6  35
HETATM   35  C   UNK     0     -12.477 -10.425  -0.527  0.00  0.00     0.030 C 
HETATM   36  C   UNK     0     -13.609  -9.706   0.182  0.00  0.00     0.007 C 
ENDBRANCH   6  35
BRANCH   3  37
HETATM   37  O   UNK     0      -7.137 -10.012   1.140  0.00  0.00    -0.388 OA
HETATM   38  H   UNK     0      -6.432  -9.717   0.539  0.00  0.00     0.210 HD
ENDBRANCH   3  37
BRANCH   5  39
HETATM   39  O   UNK     0     -11.259 -12.463   1.231  0.00  0.00    -0.390 OA
HETATM   40  H   UNK     0     -10.762 -13.280   1.404  0.00  0.00     0.210 HD
ENDBRANCH   5  39
BRANCH   4  41
HETATM   41  O   UNK     0      -8.341 -12.646   0.979  0.00  0.00    -0.390 OA
HETATM   42  H   UNK     0      -7.439 -12.431   0.686  0.00  0.00     0.210 HD
ENDBRANCH   4  41
TORSDOF 15
