MODEL 1
REMARK VINA RESULT:      -6.8      0.000      0.000
REMARK  0 active torsions:
REMARK  status: ('A' for Active; 'I' for Inactive)
ROOT
HETATM    1  O   UNK     0     -10.087  -5.796  -0.926  0.00  0.00    -0.323 OA
HETATM    2  O   UNK     0     -10.900  -7.143  -2.749  0.00  0.00    -0.323 OA
HETATM    3  N   UNK     0     -15.759  -3.484  -2.706  0.00  0.00    -0.259 NA
HETATM    4  C   UNK     0     -13.284  -3.989  -1.459  0.00  0.00    -0.009 A 
HETATM    5  C   UNK     0     -13.736  -4.803  -2.533  0.00  0.00    -0.005 A 
HETATM    6  C   UNK     0     -14.118  -2.905  -1.026  0.00  0.00     0.004 A 
HETATM    7  C   UNK     0     -11.301  -5.378  -1.379  0.00  0.00     0.105 A 
HETATM    8  C   UNK     0     -12.027  -4.310  -0.885  0.00  0.00     0.053 A 
HETATM    9  C   UNK     0     -11.763  -6.144  -2.415  0.00  0.00     0.105 A 
HETATM   10  C   UNK     0     -12.974  -5.885  -3.014  0.00  0.00     0.053 A 
HETATM   11  C   UNK     0     -15.349  -2.706  -1.694  0.00  0.00     0.067 A 
HETATM   12  C   UNK     0     -14.963  -4.499  -3.101  0.00  0.00     0.129 A 
HETATM   13  C   UNK     0     -13.788  -2.020   0.031  0.00  0.00     0.014 A 
HETATM   14  C   UNK     0      -9.839  -6.916  -1.800  0.00  0.00     0.352 A 
HETATM   15  C   UNK     0     -16.181  -1.662  -1.297  0.00  0.00     0.032 A 
HETATM   16  C   UNK     0     -14.638  -0.981   0.411  0.00  0.00     0.001 A 
HETATM   17  C   UNK     0     -15.838  -0.803  -0.256  0.00  0.00     0.002 A 
ENDROOT
TORSDOF 0
ENDMDL
MODEL 2
REMARK VINA RESULT:      -6.8      1.811      2.952
REMARK  0 active torsions:
REMARK  status: ('A' for Active; 'I' for Inactive)
ROOT
HETATM    1  O   UNK     0     -13.379  -7.197  -4.327  0.00  0.00    -0.323 OA
HETATM    2  O   UNK     0     -11.526  -8.220  -3.178  0.00  0.00    -0.323 OA
HETATM    3  N   UNK     0     -11.819  -3.470   0.608  0.00  0.00    -0.259 NA
HETATM    4  C   UNK     0     -12.988  -4.629  -1.677  0.00  0.00    -0.009 A 
HETATM    5  C   UNK     0     -11.895  -5.258  -1.022  0.00  0.00    -0.005 A 
HETATM    6  C   UNK     0     -13.481  -3.390  -1.147  0.00  0.00     0.004 A 
HETATM    7  C   UNK     0     -12.970  -6.471  -3.250  0.00  0.00     0.105 A 
HETATM    8  C   UNK     0     -13.520  -5.278  -2.822  0.00  0.00     0.053 A 
HETATM    9  C   UNK     0     -11.916  -7.053  -2.598  0.00  0.00     0.105 A 
HETATM   10  C   UNK     0     -11.356  -6.475  -1.483  0.00  0.00     0.053 A 
HETATM   11  C   UNK     0     -12.849  -2.862   0.004  0.00  0.00     0.067 A 
HETATM   12  C   UNK     0     -11.368  -4.633   0.097  0.00  0.00     0.129 A 
HETATM   13  C   UNK     0     -14.562  -2.660  -1.702  0.00  0.00     0.014 A 
HETATM   14  C   UNK     0     -12.458  -8.306  -4.275  0.00  0.00     0.352 A 
HETATM   15  C   UNK     0     -13.304  -1.661   0.542  0.00  0.00     0.032 A 
HETATM   16  C   UNK     0     -15.000  -1.459  -1.144  0.00  0.00     0.001 A 
HETATM   17  C   UNK     0     -14.369  -0.959  -0.019  0.00  0.00     0.002 A 
ENDROOT
TORSDOF 0
ENDMDL
MODEL 3
REMARK VINA RESULT:      -6.8      1.583      2.353
REMARK  0 active torsions:
REMARK  status: ('A' for Active; 'I' for Inactive)
ROOT
HETATM    1  O   UNK     0     -11.480  -8.129  -2.876  0.00  0.00    -0.323 OA
HETATM    2  O   UNK     0     -13.129  -7.926  -4.620  0.00  0.00    -0.323 OA
HETATM    3  N   UNK     0     -14.764  -2.756  -1.864  0.00  0.00    -0.259 NA
HETATM    4  C   UNK     0     -12.978  -4.931  -1.739  0.00  0.00    -0.009 A 
HETATM    5  C   UNK     0     -13.940  -4.840  -2.781  0.00  0.00    -0.005 A 
HETATM    6  C   UNK     0     -12.939  -3.890  -0.753  0.00  0.00     0.004 A 
HETATM    7  C   UNK     0     -12.237  -7.005  -2.746  0.00  0.00     0.105 A 
HETATM    8  C   UNK     0     -12.116  -6.058  -1.748  0.00  0.00     0.053 A 
HETATM    9  C   UNK     0     -13.174  -6.891  -3.738  0.00  0.00     0.105 A 
HETATM   10  C   UNK     0     -14.040  -5.822  -3.785  0.00  0.00     0.053 A 
HETATM   11  C   UNK     0     -13.864  -2.826  -0.873  0.00  0.00     0.067 A 
HETATM   12  C   UNK     0     -14.787  -3.744  -2.782  0.00  0.00     0.129 A 
HETATM   13  C   UNK     0     -12.032  -3.858   0.336  0.00  0.00     0.014 A 
HETATM   14  C   UNK     0     -12.051  -8.709  -4.067  0.00  0.00     0.352 A 
HETATM   15  C   UNK     0     -13.851  -1.800   0.068  0.00  0.00     0.032 A 
HETATM   16  C   UNK     0     -12.039  -2.819   1.267  0.00  0.00     0.001 A 
HETATM   17  C   UNK     0     -12.951  -1.787   1.132  0.00  0.00     0.002 A 
ENDROOT
TORSDOF 0
ENDMDL
MODEL 4
REMARK VINA RESULT:      -6.5      2.408      4.036
REMARK  0 active torsions:
REMARK  status: ('A' for Active; 'I' for Inactive)
ROOT
HETATM    1  O   UNK     0     -14.316  -5.943  -4.526  0.00  0.00    -0.323 OA
HETATM    2  O   UNK     0     -16.177  -4.533  -5.116  0.00  0.00    -0.323 OA
HETATM    3  N   UNK     0     -14.867  -1.433  -0.050  0.00  0.00    -0.259 NA
HETATM    4  C   UNK     0     -14.092  -3.630  -1.633  0.00  0.00    -0.009 A 
HETATM    5  C   UNK     0     -15.196  -2.817  -2.010  0.00  0.00    -0.005 A 
HETATM    6  C   UNK     0     -13.384  -3.306  -0.430  0.00  0.00     0.004 A 
HETATM    7  C   UNK     0     -14.516  -4.942  -3.625  0.00  0.00     0.105 A 
HETATM    8  C   UNK     0     -13.767  -4.717  -2.486  0.00  0.00     0.053 A 
HETATM    9  C   UNK     0     -15.574  -4.142  -3.961  0.00  0.00     0.105 A 
HETATM   10  C   UNK     0     -15.941  -3.072  -3.177  0.00  0.00     0.053 A 
HETATM   11  C   UNK     0     -13.824  -2.189   0.320  0.00  0.00     0.067 A 
HETATM   12  C   UNK     0     -15.523  -1.753  -1.185  0.00  0.00     0.129 A 
HETATM   13  C   UNK     0     -12.269  -4.032   0.059  0.00  0.00     0.014 A 
HETATM   14  C   UNK     0     -15.374  -5.677  -5.470  0.00  0.00     0.352 A 
HETATM   15  C   UNK     0     -13.157  -1.849   1.494  0.00  0.00     0.032 A 
HETATM   16  C   UNK     0     -11.616  -3.671   1.238  0.00  0.00     0.001 A 
HETATM   17  C   UNK     0     -12.062  -2.576   1.957  0.00  0.00     0.002 A 
ENDROOT
TORSDOF 0
ENDMDL
MODEL 5
REMARK VINA RESULT:      -6.2     16.014     17.430
REMARK  0 active torsions:
REMARK  status: ('A' for Active; 'I' for Inactive)
ROOT
HETATM    1  O   UNK     0      -3.142   5.619  -9.553  0.00  0.00    -0.323 OA
HETATM    2  O   UNK     0      -2.360   6.304 -11.725  0.00  0.00    -0.323 OA
HETATM    3  N   UNK     0       0.636   1.011 -11.827  0.00  0.00    -0.259 NA
HETATM    4  C   UNK     0      -1.085   2.618 -10.281  0.00  0.00    -0.009 A 
HETATM    5  C   UNK     0      -0.641   3.051 -11.560  0.00  0.00    -0.005 A 
HETATM    6  C   UNK     0      -0.637   1.345  -9.797  0.00  0.00     0.004 A 
HETATM    7  C   UNK     0      -2.323   4.695 -10.125  0.00  0.00     0.105 A 
HETATM    8  C   UNK     0      -1.950   3.487  -9.566  0.00  0.00     0.053 A 
HETATM    9  C   UNK     0      -1.878   5.085 -11.359  0.00  0.00     0.105 A 
HETATM   10  C   UNK     0      -1.038   4.288 -12.103  0.00  0.00     0.053 A 
HETATM   11  C   UNK     0       0.227   0.587 -10.624  0.00  0.00     0.067 A 
HETATM   12  C   UNK     0       0.204   2.211 -12.267  0.00  0.00     0.129 A 
HETATM   13  C   UNK     0      -1.003   0.795  -8.543  0.00  0.00     0.014 A 
HETATM   14  C   UNK     0      -3.161   6.637 -10.574  0.00  0.00     0.352 A 
HETATM   15  C   UNK     0       0.679  -0.654 -10.182  0.00  0.00     0.032 A 
HETATM   16  C   UNK     0      -0.536  -0.450  -8.122  0.00  0.00     0.001 A 
HETATM   17  C   UNK     0       0.307  -1.176  -8.945  0.00  0.00     0.002 A 
ENDROOT
TORSDOF 0
ENDMDL
MODEL 6
REMARK VINA RESULT:      -6.2      2.998      5.823
REMARK  0 active torsions:
REMARK  status: ('A' for Active; 'I' for Inactive)
ROOT
HETATM    1  O   UNK     0     -16.181  -1.472  -1.382  0.00  0.00    -0.323 OA
HETATM    2  O   UNK     0     -14.778  -0.864   0.479  0.00  0.00    -0.323 OA
HETATM    3  N   UNK     0     -11.380  -5.661  -1.083  0.00  0.00    -0.259 NA
HETATM    4  C   UNK     0     -13.689  -4.196  -1.759  0.00  0.00    -0.009 A 
HETATM    5  C   UNK     0     -12.882  -3.811  -0.654  0.00  0.00    -0.005 A 
HETATM    6  C   UNK     0     -13.301  -5.347  -2.520  0.00  0.00     0.004 A 
HETATM    7  C   UNK     0     -15.120  -2.313  -1.234  0.00  0.00     0.105 A 
HETATM    8  C   UNK     0     -14.835  -3.405  -2.032  0.00  0.00     0.053 A 
HETATM    9  C   UNK     0     -14.323  -1.966  -0.176  0.00  0.00     0.105 A 
HETATM   10  C   UNK     0     -13.198  -2.693   0.141  0.00  0.00     0.053 A 
HETATM   11  C   UNK     0     -12.130  -6.039  -2.128  0.00  0.00     0.067 A 
HETATM   12  C   UNK     0     -11.760  -4.576  -0.378  0.00  0.00     0.129 A 
HETATM   13  C   UNK     0     -14.014  -5.838  -3.642  0.00  0.00     0.014 A 
HETATM   14  C   UNK     0     -15.957  -0.555  -0.291  0.00  0.00     0.352 A 
HETATM   15  C   UNK     0     -11.726  -7.160  -2.848  0.00  0.00     0.032 A 
HETATM   16  C   UNK     0     -13.590  -6.964  -4.347  0.00  0.00     0.001 A 
HETATM   17  C   UNK     0     -12.442  -7.627  -3.948  0.00  0.00     0.002 A 
ENDROOT
TORSDOF 0
ENDMDL
MODEL 7
REMARK VINA RESULT:      -6.1      3.163      5.823
REMARK  0 active torsions:
REMARK  status: ('A' for Active; 'I' for Inactive)
ROOT
HETATM    1  O   UNK     0     -15.968  -2.729   0.825  0.00  0.00    -0.323 OA
HETATM    2  O   UNK     0     -15.114  -0.524   0.368  0.00  0.00    -0.323 OA
HETATM    3  N   UNK     0     -10.391  -3.367  -2.203  0.00  0.00    -0.259 NA
HETATM    4  C   UNK     0     -12.840  -3.777  -0.875  0.00  0.00    -0.009 A 
HETATM    5  C   UNK     0     -12.364  -2.463  -1.130  0.00  0.00    -0.005 A 
HETATM    6  C   UNK     0     -12.045  -4.889  -1.309  0.00  0.00     0.004 A 
HETATM    7  C   UNK     0     -14.771  -2.760   0.176  0.00  0.00     0.105 A 
HETATM    8  C   UNK     0     -14.084  -3.898  -0.200  0.00  0.00     0.053 A 
HETATM    9  C   UNK     0     -14.287  -1.506  -0.083  0.00  0.00     0.105 A 
HETATM   10  C   UNK     0     -13.088  -1.322  -0.733  0.00  0.00     0.053 A 
HETATM   11  C   UNK     0     -10.825  -4.614  -1.971  0.00  0.00     0.067 A 
HETATM   12  C   UNK     0     -11.151  -2.333  -1.787  0.00  0.00     0.129 A 
HETATM   13  C   UNK     0     -12.402  -6.247  -1.119  0.00  0.00     0.014 A 
HETATM   14  C   UNK     0     -16.179  -1.307   0.944  0.00  0.00     0.352 A 
HETATM   15  C   UNK     0     -10.030  -5.671  -2.405  0.00  0.00     0.032 A 
HETATM   16  C   UNK     0     -11.589  -7.290  -1.563  0.00  0.00     0.001 A 
HETATM   17  C   UNK     0     -10.400  -7.000  -2.208  0.00  0.00     0.002 A 
ENDROOT
TORSDOF 0
ENDMDL
MODEL 8
REMARK VINA RESULT:      -6.0     16.199     17.670
REMARK  0 active torsions:
REMARK  status: ('A' for Active; 'I' for Inactive)
ROOT
HETATM    1  O   UNK     0      -1.716   6.165 -12.017  0.00  0.00    -0.323 OA
HETATM    2  O   UNK     0      -1.886   6.476  -9.635  0.00  0.00    -0.323 OA
HETATM    3  N   UNK     0      -0.842   0.499  -9.222  0.00  0.00    -0.259 NA
HETATM    4  C   UNK     0      -1.134   2.634 -11.036  0.00  0.00    -0.009 A 
HETATM    5  C   UNK     0      -1.241   2.851  -9.636  0.00  0.00    -0.005 A 
HETATM    6  C   UNK     0      -0.875   1.303 -11.504  0.00  0.00     0.004 A 
HETATM    7  C   UNK     0      -1.542   5.004 -11.328  0.00  0.00     0.105 A 
HETATM    8  C   UNK     0      -1.295   3.762 -11.882  0.00  0.00     0.053 A 
HETATM    9  C   UNK     0      -1.639   5.182  -9.974  0.00  0.00     0.105 A 
HETATM   10  C   UNK     0      -1.494   4.129  -9.101  0.00  0.00     0.053 A 
HETATM   11  C   UNK     0      -0.738   0.275 -10.540  0.00  0.00     0.067 A 
HETATM   12  C   UNK     0      -1.086   1.756  -8.801  0.00  0.00     0.129 A 
HETATM   13  C   UNK     0      -0.746   0.949 -12.870  0.00  0.00     0.014 A 
HETATM   14  C   UNK     0      -1.934   7.095 -10.937  0.00  0.00     0.352 A 
HETATM   15  C   UNK     0      -0.486  -1.027 -10.962  0.00  0.00     0.032 A 
HETATM   16  C   UNK     0      -0.493  -0.363 -13.269  0.00  0.00     0.001 A 
HETATM   17  C   UNK     0      -0.363  -1.354 -12.311  0.00  0.00     0.002 A 
ENDROOT
TORSDOF 0
ENDMDL
MODEL 9
REMARK VINA RESULT:      -5.8     16.930     17.793
REMARK  0 active torsions:
REMARK  status: ('A' for Active; 'I' for Inactive)
ROOT
HETATM    1  O   UNK     0       0.343   1.230  -9.293  0.00  0.00    -0.323 OA
HETATM    2  O   UNK     0      -0.389   3.425  -9.962  0.00  0.00    -0.323 OA
HETATM    3  N   UNK     0      -2.234   0.758 -15.108  0.00  0.00    -0.259 NA
HETATM    4  C   UNK     0      -1.001   0.286 -12.620  0.00  0.00    -0.009 A 
HETATM    5  C   UNK     0      -1.422   1.593 -12.985  0.00  0.00    -0.005 A 
HETATM    6  C   UNK     0      -1.219  -0.786 -13.547  0.00  0.00     0.004 A 
HETATM    7  C   UNK     0      -0.225   1.233 -10.530  0.00  0.00     0.105 A 
HETATM    8  C   UNK     0      -0.388   0.132 -11.349  0.00  0.00     0.053 A 
HETATM    9  C   UNK     0      -0.641   2.481 -10.909  0.00  0.00     0.105 A 
HETATM   10  C   UNK     0      -1.242   2.696 -12.128  0.00  0.00     0.053 A 
HETATM   11  C   UNK     0      -1.843  -0.481 -14.780  0.00  0.00     0.067 A 
HETATM   12  C   UNK     0      -2.021   1.754 -14.223  0.00  0.00     0.129 A 
HETATM   13  C   UNK     0      -0.848  -2.134 -13.309  0.00  0.00     0.014 A 
HETATM   14  C   UNK     0       0.236   2.624  -8.938  0.00  0.00     0.352 A 
HETATM   15  C   UNK     0      -2.069  -1.500 -15.701  0.00  0.00     0.032 A 
HETATM   16  C   UNK     0      -1.085  -3.137 -14.248  0.00  0.00     0.001 A 
HETATM   17  C   UNK     0      -1.697  -2.819 -15.448  0.00  0.00     0.002 A 
ENDROOT
TORSDOF 0
ENDMDL
