REMARK VINA RESULT:      -6.8      0.000      0.000
REMARK  0 active torsions:
REMARK  status: ('A' for Active; 'I' for Inactive)
ROOT
HETATM    1  O   UNK     0     -10.087  -5.796  -0.926  0.00  0.00    -0.323 OA
HETATM    2  O   UNK     0     -10.900  -7.143  -2.749  0.00  0.00    -0.323 OA
HETATM    3  N   UNK     0     -15.759  -3.484  -2.706  0.00  0.00    -0.259 NA
HETATM    4  C   UNK     0     -13.284  -3.989  -1.459  0.00  0.00    -0.009 A 
HETATM    5  C   UNK     0     -13.736  -4.803  -2.533  0.00  0.00    -0.005 A 
HETATM    6  C   UNK     0     -14.118  -2.905  -1.026  0.00  0.00     0.004 A 
HETATM    7  C   UNK     0     -11.301  -5.378  -1.379  0.00  0.00     0.105 A 
HETATM    8  C   UNK     0     -12.027  -4.310  -0.885  0.00  0.00     0.053 A 
HETATM    9  C   UNK     0     -11.763  -6.144  -2.415  0.00  0.00     0.105 A 
HETATM   10  C   UNK     0     -12.974  -5.885  -3.014  0.00  0.00     0.053 A 
HETATM   11  C   UNK     0     -15.349  -2.706  -1.694  0.00  0.00     0.067 A 
HETATM   12  C   UNK     0     -14.963  -4.499  -3.101  0.00  0.00     0.129 A 
HETATM   13  C   UNK     0     -13.788  -2.020   0.031  0.00  0.00     0.014 A 
HETATM   14  C   UNK     0      -9.839  -6.916  -1.800  0.00  0.00     0.352 A 
HETATM   15  C   UNK     0     -16.181  -1.662  -1.297  0.00  0.00     0.032 A 
HETATM   16  C   UNK     0     -14.638  -0.981   0.411  0.00  0.00     0.001 A 
HETATM   17  C   UNK     0     -15.838  -0.803  -0.256  0.00  0.00     0.002 A 
ENDROOT
TORSDOF 0
