MODEL 1
REMARK VINA RESULT:      -8.1      0.000      0.000
REMARK  5 active torsions:
REMARK  status: ('A' for Active; 'I' for Inactive)
REMARK    1  A    between atoms: O_2  and  C_18 
REMARK    2  A    between atoms: N_4  and  C_24 
REMARK    3  A    between atoms: C_18  and  C_26 
REMARK    4  A    between atoms: C_27  and  C_28 
REMARK    5  A    between atoms: C_28  and  C_29 
ROOT
HETATM    1  O   UNK     0      -2.769   0.366  -8.974  0.00  0.00    -0.313 OA
HETATM    2  O   UNK     0      -3.431   0.755  -6.817  0.00  0.00    -0.261 OA
HETATM    3  C   UNK     0      -1.649  -2.644  -8.933  0.00  0.00    -0.030 C 
HETATM    4  C   UNK     0      -1.052  -2.367 -10.343  0.00  0.00     0.001 C 
HETATM    5  C   UNK     0      -1.565  -3.312 -11.471  0.00  0.00    -0.005 C 
HETATM    6  C   UNK     0      -1.508  -4.805 -11.061  0.00  0.00    -0.002 C 
HETATM    7  C   UNK     0      -1.952  -5.799 -12.210  0.00  0.00    -0.036 C 
HETATM    8  C   UNK     0      -3.059  -1.986  -9.058  0.00  0.00     0.072 C 
HETATM    9  C   UNK     0      -1.708  -4.149  -8.623  0.00  0.00     0.010 C 
HETATM   10  C   UNK     0      -1.463  -0.902 -10.595  0.00  0.00     0.039 C 
HETATM   11  C   UNK     0      -2.812  -0.730  -9.896  0.00  0.00     0.141 C 
HETATM   12  C   UNK     0      -2.281  -5.007  -9.745  0.00  0.00     0.006 C 
HETATM   13  C   UNK     0      -1.181  -5.468 -13.530  0.00  0.00    -0.004 C 
HETATM   14  C   UNK     0      -0.738  -3.099 -12.750  0.00  0.00     0.006 C 
HETATM   15  C   UNK     0      -1.235  -3.974 -13.888  0.00  0.00     0.006 C 
HETATM   16  C   UNK     0      -3.810  -1.425  -7.855  0.00  0.00     0.169 C 
HETATM   17  C   UNK     0      -3.483  -5.740 -12.470  0.00  0.00     0.012 C 
HETATM   18  C   UNK     0      -0.735  -1.995  -7.862  0.00  0.00     0.016 C 
HETATM   19  C   UNK     0      -1.664  -6.305 -14.734  0.00  0.00     0.040 C 
HETATM   20  C   UNK     0      -1.576  -7.241 -11.767  0.00  0.00     0.016 C 
HETATM   21  C   UNK     0      -3.942  -6.585 -13.661  0.00  0.00     0.036 C 
HETATM   22  C   UNK     0      -3.182  -6.233 -14.941  0.00  0.00     0.218 C 
HETATM   23  C   UNK     0      -3.322   0.004  -7.773  0.00  0.00     0.298 C 
ENDROOT
BRANCH  16  24
HETATM   24  O   UNK     0      -5.202  -1.293  -8.152  0.00  0.00    -0.375 OA
HETATM   25  H   UNK     0      -5.568  -0.553  -7.639  0.00  0.00     0.211 HD
ENDBRANCH  16  24
BRANCH  16  26
HETATM   26  C   UNK     0      -3.712  -2.164  -6.574  0.00  0.00     0.018 C 
HETATM   27  C   UNK     0      -4.548  -3.150  -6.213  0.00  0.00    -0.023 C 
BRANCH  27  28
HETATM   28  C   UNK     0      -4.443  -3.907  -4.909  0.00  0.00     0.007 C 
HETATM   29  C   UNK     0      -3.673  -5.211  -5.142  0.00  0.00     0.014 C 
BRANCH  28  30
HETATM   30  C   UNK     0      -5.816  -4.158  -4.223  0.00  0.00    -0.015 C 
HETATM   31  C   UNK     0      -6.815  -3.005  -4.369  0.00  0.00     0.010 C 
HETATM   32  C   UNK     0      -5.647  -4.506  -2.739  0.00  0.00     0.010 C 
ENDBRANCH  28  30
ENDBRANCH  27  28
ENDBRANCH  16  26
BRANCH  22  33
HETATM   33  N   UNK     0      -3.594  -7.131 -16.021  0.00  0.00     0.083 N 
HETATM   34  H   UNK     0      -4.293  -7.786 -15.674  0.00  0.00     0.313 HD
HETATM   35  H   UNK     0      -2.798  -7.691 -16.325  0.00  0.00     0.313 HD
ENDBRANCH  22  33
TORSDOF 5
ENDMDL
MODEL 2
REMARK VINA RESULT:      -7.9      0.869      1.569
REMARK  5 active torsions:
REMARK  status: ('A' for Active; 'I' for Inactive)
REMARK    1  A    between atoms: O_2  and  C_18 
REMARK    2  A    between atoms: N_4  and  C_24 
REMARK    3  A    between atoms: C_18  and  C_26 
REMARK    4  A    between atoms: C_27  and  C_28 
REMARK    5  A    between atoms: C_28  and  C_29 
ROOT
HETATM    1  O   UNK     0      -2.831   0.270  -9.352  0.00  0.00    -0.313 OA
HETATM    2  O   UNK     0      -3.358   0.629  -7.153  0.00  0.00    -0.261 OA
HETATM    3  C   UNK     0      -1.614  -2.702  -9.406  0.00  0.00    -0.030 C 
HETATM    4  C   UNK     0      -1.123  -2.400 -10.852  0.00  0.00     0.001 C 
HETATM    5  C   UNK     0      -1.681  -3.356 -11.949  0.00  0.00    -0.005 C 
HETATM    6  C   UNK     0      -1.548  -4.848 -11.553  0.00  0.00    -0.002 C 
HETATM    7  C   UNK     0      -2.037  -5.851 -12.676  0.00  0.00    -0.036 C 
HETATM    8  C   UNK     0      -3.050  -2.090  -9.432  0.00  0.00     0.072 C 
HETATM    9  C   UNK     0      -1.605  -4.210  -9.103  0.00  0.00     0.010 C 
HETATM   10  C   UNK     0      -1.598  -0.948 -11.066  0.00  0.00     0.039 C 
HETATM   11  C   UNK     0      -2.900  -0.823 -10.276  0.00  0.00     0.141 C 
HETATM   12  C   UNK     0      -2.224  -5.081 -10.189  0.00  0.00     0.006 C 
HETATM   13  C   UNK     0      -1.368  -5.490 -14.042  0.00  0.00    -0.004 C 
HETATM   14  C   UNK     0      -0.949  -3.111 -13.279  0.00  0.00     0.006 C 
HETATM   15  C   UNK     0      -1.494  -3.997 -14.386  0.00  0.00     0.006 C 
HETATM   16  C   UNK     0      -3.736  -1.558  -8.178  0.00  0.00     0.169 C 
HETATM   17  C   UNK     0      -3.583  -5.840 -12.832  0.00  0.00     0.012 C 
HETATM   18  C   UNK     0      -0.651  -2.028  -8.396  0.00  0.00     0.016 C 
HETATM   19  C   UNK     0      -1.904  -6.337 -15.217  0.00  0.00     0.040 C 
HETATM   20  C   UNK     0      -1.587  -7.283 -12.269  0.00  0.00     0.016 C 
HETATM   21  C   UNK     0      -4.094  -6.695 -13.995  0.00  0.00     0.036 C 
HETATM   22  C   UNK     0      -3.434  -6.313 -15.321  0.00  0.00     0.218 C 
HETATM   23  C   UNK     0      -3.290  -0.115  -8.119  0.00  0.00     0.298 C 
ENDROOT
BRANCH  16  24
HETATM   24  O   UNK     0      -5.148  -1.471  -8.380  0.00  0.00    -0.375 OA
HETATM   25  H   UNK     0      -5.390  -0.542  -8.538  0.00  0.00     0.211 HD
ENDBRANCH  16  24
BRANCH  16  26
HETATM   26  C   UNK     0      -3.528  -2.300  -6.910  0.00  0.00     0.018 C 
HETATM   27  C   UNK     0      -3.959  -3.553  -6.698  0.00  0.00    -0.023 C 
BRANCH  27  28
HETATM   28  C   UNK     0      -3.741  -4.310  -5.408  0.00  0.00     0.007 C 
HETATM   29  C   UNK     0      -4.714  -3.787  -4.345  0.00  0.00     0.014 C 
BRANCH  28  30
HETATM   30  C   UNK     0      -2.268  -4.282  -4.911  0.00  0.00    -0.015 C 
HETATM   31  C   UNK     0      -1.675  -2.876  -4.774  0.00  0.00     0.010 C 
HETATM   32  C   UNK     0      -1.359  -5.139  -5.799  0.00  0.00     0.010 C 
ENDBRANCH  28  30
ENDBRANCH  27  28
ENDBRANCH  16  26
BRANCH  22  33
HETATM   33  N   UNK     0      -3.889  -7.219 -16.377  0.00  0.00     0.083 N 
HETATM   34  H   UNK     0      -4.262  -8.071 -15.959  0.00  0.00     0.313 HD
HETATM   35  H   UNK     0      -3.097  -7.501 -16.952  0.00  0.00     0.313 HD
ENDBRANCH  22  33
TORSDOF 5
ENDMDL
MODEL 3
REMARK VINA RESULT:      -7.4      3.747      7.146
REMARK  5 active torsions:
REMARK  status: ('A' for Active; 'I' for Inactive)
REMARK    1  A    between atoms: O_2  and  C_18 
REMARK    2  A    between atoms: N_4  and  C_24 
REMARK    3  A    between atoms: C_18  and  C_26 
REMARK    4  A    between atoms: C_27  and  C_28 
REMARK    5  A    between atoms: C_28  and  C_29 
ROOT
HETATM    1  O   UNK     0      -2.466  -2.212  -5.845  0.00  0.00    -0.313 OA
HETATM    2  O   UNK     0      -0.948  -3.914  -6.039  0.00  0.00    -0.261 OA
HETATM    3  C   UNK     0      -2.577  -0.904  -8.777  0.00  0.00    -0.030 C 
HETATM    4  C   UNK     0      -3.356   0.284  -8.142  0.00  0.00     0.001 C 
HETATM    5  C   UNK     0      -4.775   0.532  -8.736  0.00  0.00    -0.005 C 
HETATM    6  C   UNK     0      -4.769   0.557 -10.285  0.00  0.00    -0.002 C 
HETATM    7  C   UNK     0      -6.182   0.881 -10.922  0.00  0.00    -0.036 C 
HETATM    8  C   UNK     0      -3.254  -2.127  -8.081  0.00  0.00     0.072 C 
HETATM    9  C   UNK     0      -2.717  -0.926 -10.309  0.00  0.00     0.010 C 
HETATM   10  C   UNK     0      -3.422  -0.121  -6.656  0.00  0.00     0.039 C 
HETATM   11  C   UNK     0      -3.508  -1.647  -6.651  0.00  0.00     0.141 C 
HETATM   12  C   UNK     0      -4.142  -0.743 -10.819  0.00  0.00     0.006 C 
HETATM   13  C   UNK     0      -6.783   2.166 -10.263  0.00  0.00    -0.004 C 
HETATM   14  C   UNK     0      -5.342   1.858  -8.203  0.00  0.00     0.006 C 
HETATM   15  C   UNK     0      -6.744   2.116  -8.728  0.00  0.00     0.006 C 
HETATM   16  C   UNK     0      -2.522  -3.445  -7.849  0.00  0.00     0.169 C 
HETATM   17  C   UNK     0      -7.176  -0.303 -10.763  0.00  0.00     0.012 C 
HETATM   18  C   UNK     0      -1.068  -0.745  -8.461  0.00  0.00     0.016 C 
HETATM   19  C   UNK     0      -8.223   2.465 -10.733  0.00  0.00     0.040 C 
HETATM   20  C   UNK     0      -5.972   1.156 -12.438  0.00  0.00     0.016 C 
HETATM   21  C   UNK     0      -8.595   0.012 -11.245  0.00  0.00     0.036 C 
HETATM   22  C   UNK     0      -9.164   1.264 -10.576  0.00  0.00     0.218 C 
HETATM   23  C   UNK     0      -1.857  -3.246  -6.507  0.00  0.00     0.298 C 
ENDROOT
BRANCH  16  24
HETATM   24  O   UNK     0      -3.458  -4.500  -7.613  0.00  0.00    -0.375 OA
HETATM   25  H   UNK     0      -3.019  -5.207  -7.110  0.00  0.00     0.211 HD
ENDBRANCH  16  24
BRANCH  16  26
HETATM   26  C   UNK     0      -1.600  -3.917  -8.910  0.00  0.00     0.018 C 
HETATM   27  C   UNK     0      -1.965  -4.736  -9.908  0.00  0.00    -0.023 C 
BRANCH  27  28
HETATM   28  C   UNK     0      -1.025  -5.213 -10.991  0.00  0.00     0.007 C 
HETATM   29  C   UNK     0      -0.682  -4.039 -11.916  0.00  0.00     0.014 C 
BRANCH  28  30
HETATM   30  C   UNK     0      -1.558  -6.439 -11.784  0.00  0.00    -0.015 C 
HETATM   31  C   UNK     0      -0.774  -7.734 -11.545  0.00  0.00     0.010 C 
HETATM   32  C   UNK     0      -1.626  -6.150 -13.288  0.00  0.00     0.010 C 
ENDBRANCH  28  30
ENDBRANCH  27  28
ENDBRANCH  16  26
BRANCH  22  33
HETATM   33  N   UNK     0     -10.481   1.569 -11.140  0.00  0.00     0.083 N 
HETATM   34  H   UNK     0     -10.395   2.320 -11.823  0.00  0.00     0.313 HD
HETATM   35  H   UNK     0     -11.097   1.913 -10.406  0.00  0.00     0.313 HD
ENDBRANCH  22  33
TORSDOF 5
ENDMDL
MODEL 4
REMARK VINA RESULT:      -7.1      5.519      9.225
REMARK  5 active torsions:
REMARK  status: ('A' for Active; 'I' for Inactive)
REMARK    1  A    between atoms: O_2  and  C_18 
REMARK    2  A    between atoms: N_4  and  C_24 
REMARK    3  A    between atoms: C_18  and  C_26 
REMARK    4  A    between atoms: C_27  and  C_28 
REMARK    5  A    between atoms: C_28  and  C_29 
ROOT
HETATM    1  O   UNK     0     -12.237  -3.626  -4.770  0.00  0.00    -0.313 OA
HETATM    2  O   UNK     0     -13.691  -4.858  -3.502  0.00  0.00    -0.261 OA
HETATM    3  C   UNK     0      -9.537  -3.543  -3.031  0.00  0.00    -0.030 C 
HETATM    4  C   UNK     0      -9.032  -2.433  -3.998  0.00  0.00     0.001 C 
HETATM    5  C   UNK     0      -7.711  -2.771  -4.753  0.00  0.00    -0.005 C 
HETATM    6  C   UNK     0      -6.610  -3.310  -3.805  0.00  0.00    -0.002 C 
HETATM    7  C   UNK     0      -5.231  -3.593  -4.527  0.00  0.00    -0.036 C 
HETATM    8  C   UNK     0     -10.183  -4.553  -4.031  0.00  0.00     0.072 C 
HETATM    9  C   UNK     0      -8.388  -4.153  -2.211  0.00  0.00     0.010 C 
HETATM   10  C   UNK     0     -10.219  -2.273  -4.969  0.00  0.00     0.039 C 
HETATM   11  C   UNK     0     -10.840  -3.664  -5.088  0.00  0.00     0.141 C 
HETATM   12  C   UNK     0      -7.152  -4.520  -3.023  0.00  0.00     0.006 C 
HETATM   13  C   UNK     0      -4.799  -2.345  -5.364  0.00  0.00    -0.004 C 
HETATM   14  C   UNK     0      -7.191  -1.522  -5.485  0.00  0.00     0.006 C 
HETATM   15  C   UNK     0      -5.925  -1.822  -6.269  0.00  0.00     0.006 C 
HETATM   16  C   UNK     0     -11.330  -5.477  -3.633  0.00  0.00     0.169 C 
HETATM   17  C   UNK     0      -5.304  -4.842  -5.449  0.00  0.00     0.012 C 
HETATM   18  C   UNK     0     -10.534  -2.917  -2.023  0.00  0.00     0.016 C 
HETATM   19  C   UNK     0      -3.532  -2.598  -6.210  0.00  0.00     0.040 C 
HETATM   20  C   UNK     0      -4.159  -3.846  -3.429  0.00  0.00     0.016 C 
HETATM   21  C   UNK     0      -4.033  -5.080  -6.270  0.00  0.00     0.036 C 
HETATM   22  C   UNK     0      -3.640  -3.849  -7.089  0.00  0.00     0.218 C 
HETATM   23  C   UNK     0     -12.562  -4.648  -3.917  0.00  0.00     0.298 C 
ENDROOT
BRANCH  16  24
HETATM   24  O   UNK     0     -11.434  -6.567  -4.552  0.00  0.00    -0.375 OA
HETATM   25  H   UNK     0     -12.303  -6.535  -4.986  0.00  0.00     0.211 HD
ENDBRANCH  16  24
BRANCH  16  26
HETATM   26  C   UNK     0     -11.304  -6.063  -2.271  0.00  0.00     0.018 C 
HETATM   27  C   UNK     0     -10.620  -7.171  -1.947  0.00  0.00    -0.023 C 
BRANCH  27  28
HETATM   28  C   UNK     0     -10.591  -7.764  -0.557  0.00  0.00     0.007 C 
HETATM   29  C   UNK     0     -11.822  -7.287   0.223  0.00  0.00     0.014 C 
BRANCH  28  30
HETATM   30  C   UNK     0      -9.270  -7.479   0.213  0.00  0.00    -0.015 C 
HETATM   31  C   UNK     0      -9.236  -6.124   0.928  0.00  0.00     0.010 C 
HETATM   32  C   UNK     0      -8.047  -7.608  -0.702  0.00  0.00     0.010 C 
ENDBRANCH  28  30
ENDBRANCH  27  28
ENDBRANCH  16  26
BRANCH  22  33
HETATM   33  N   UNK     0      -2.374  -4.100  -7.780  0.00  0.00     0.083 N 
HETATM   34  H   UNK     0      -1.938  -3.214  -8.028  0.00  0.00     0.313 HD
HETATM   35  H   UNK     0      -2.552  -4.591  -8.655  0.00  0.00     0.313 HD
ENDBRANCH  22  33
TORSDOF 5
ENDMDL
MODEL 5
REMARK VINA RESULT:      -6.9      1.997      2.881
REMARK  5 active torsions:
REMARK  status: ('A' for Active; 'I' for Inactive)
REMARK    1  A    between atoms: O_2  and  C_18 
REMARK    2  A    between atoms: N_4  and  C_24 
REMARK    3  A    between atoms: C_18  and  C_26 
REMARK    4  A    between atoms: C_27  and  C_28 
REMARK    5  A    between atoms: C_28  and  C_29 
ROOT
HETATM    1  O   UNK     0      -0.151  -0.295 -10.087  0.00  0.00    -0.313 OA
HETATM    2  O   UNK     0      -0.678   1.269  -8.500  0.00  0.00    -0.261 OA
HETATM    3  C   UNK     0      -1.972  -2.834  -9.339  0.00  0.00    -0.030 C 
HETATM    4  C   UNK     0      -1.109  -3.659 -10.337  0.00  0.00     0.001 C 
HETATM    5  C   UNK     0      -1.902  -4.311 -11.509  0.00  0.00    -0.005 C 
HETATM    6  C   UNK     0      -3.165  -5.063 -11.020  0.00  0.00    -0.002 C 
HETATM    7  C   UNK     0      -3.955  -5.800 -12.176  0.00  0.00    -0.036 C 
HETATM    8  C   UNK     0      -2.188  -1.510 -10.138  0.00  0.00     0.072 C 
HETATM    9  C   UNK     0      -3.287  -3.552  -8.991  0.00  0.00     0.010 C 
HETATM   10  C   UNK     0      -0.098  -2.611 -10.845  0.00  0.00     0.039 C 
HETATM   11  C   UNK     0      -0.854  -1.283 -10.851  0.00  0.00     0.141 C 
HETATM   12  C   UNK     0      -4.044  -4.108 -10.191  0.00  0.00     0.006 C 
HETATM   13  C   UNK     0      -2.973  -6.680 -13.018  0.00  0.00    -0.004 C 
HETATM   14  C   UNK     0      -0.993  -5.282 -12.281  0.00  0.00     0.006 C 
HETATM   15  C   UNK     0      -1.720  -5.908 -13.459  0.00  0.00     0.006 C 
HETATM   16  C   UNK     0      -2.414  -0.167  -9.450  0.00  0.00     0.169 C 
HETATM   17  C   UNK     0      -4.690  -4.798 -13.109  0.00  0.00     0.012 C 
HETATM   18  C   UNK     0      -1.185  -2.660  -8.015  0.00  0.00     0.016 C 
HETATM   19  C   UNK     0      -3.646  -7.320 -14.252  0.00  0.00     0.040 C 
HETATM   20  C   UNK     0      -5.010  -6.733 -11.517  0.00  0.00     0.016 C 
HETATM   21  C   UNK     0      -5.359  -5.455 -14.320  0.00  0.00     0.036 C 
HETATM   22  C   UNK     0      -4.375  -6.298 -15.132  0.00  0.00     0.218 C 
HETATM   23  C   UNK     0      -1.013   0.364  -9.249  0.00  0.00     0.298 C 
ENDROOT
BRANCH  16  24
HETATM   24  O   UNK     0      -3.005   0.766 -10.357  0.00  0.00    -0.375 OA
HETATM   25  H   UNK     0      -3.692   0.313 -10.875  0.00  0.00     0.211 HD
ENDBRANCH  16  24
BRANCH  16  26
HETATM   26  C   UNK     0      -3.240  -0.153  -8.218  0.00  0.00     0.018 C 
HETATM   27  C   UNK     0      -4.562  -0.380  -8.203  0.00  0.00    -0.023 C 
BRANCH  27  28
HETATM   28  C   UNK     0      -5.403  -0.371  -6.947  0.00  0.00     0.007 C 
HETATM   29  C   UNK     0      -5.236  -1.708  -6.217  0.00  0.00     0.014 C 
BRANCH  28  30
HETATM   30  C   UNK     0      -6.898  -0.030  -7.201  0.00  0.00    -0.015 C 
HETATM   31  C   UNK     0      -7.887  -0.961  -6.489  0.00  0.00     0.010 C 
HETATM   32  C   UNK     0      -7.219   0.010  -8.700  0.00  0.00     0.010 C 
ENDBRANCH  28  30
ENDBRANCH  27  28
ENDBRANCH  16  26
BRANCH  22  33
HETATM   33  N   UNK     0      -5.085  -6.974 -16.219  0.00  0.00     0.083 N 
HETATM   34  H   UNK     0      -4.445  -7.142 -16.994  0.00  0.00     0.313 HD
HETATM   35  H   UNK     0      -5.821  -6.367 -16.578  0.00  0.00     0.313 HD
ENDBRANCH  22  33
TORSDOF 5
ENDMDL
MODEL 6
REMARK VINA RESULT:      -6.8     10.426     13.449
REMARK  5 active torsions:
REMARK  status: ('A' for Active; 'I' for Inactive)
REMARK    1  A    between atoms: O_2  and  C_18 
REMARK    2  A    between atoms: N_4  and  C_24 
REMARK    3  A    between atoms: C_18  and  C_26 
REMARK    4  A    between atoms: C_27  and  C_28 
REMARK    5  A    between atoms: C_28  and  C_29 
ROOT
HETATM    1  O   UNK     0      -7.505  -6.571  -1.219  0.00  0.00    -0.313 OA
HETATM    2  O   UNK     0      -7.767  -8.725  -0.488  0.00  0.00    -0.261 OA
HETATM    3  C   UNK     0     -10.466  -5.648  -2.055  0.00  0.00    -0.030 C 
HETATM    4  C   UNK     0      -9.811  -4.416  -2.745  0.00  0.00     0.001 C 
HETATM    5  C   UNK     0     -10.283  -3.032  -2.206  0.00  0.00    -0.005 C 
HETATM    6  C   UNK     0     -11.826  -2.934  -2.104  0.00  0.00    -0.002 C 
HETATM    7  C   UNK     0     -12.344  -1.516  -1.630  0.00  0.00    -0.036 C 
HETATM    8  C   UNK     0      -9.661  -5.718  -0.719  0.00  0.00     0.072 C 
HETATM    9  C   UNK     0     -11.976  -5.448  -1.842  0.00  0.00     0.010 C 
HETATM   10  C   UNK     0      -8.310  -4.649  -2.483  0.00  0.00     0.039 C 
HETATM   11  C   UNK     0      -8.234  -5.341  -1.123  0.00  0.00     0.141 C 
HETATM   12  C   UNK     0     -12.361  -4.098  -1.250  0.00  0.00     0.006 C 
HETATM   13  C   UNK     0     -11.687  -0.390  -2.494  0.00  0.00    -0.004 C 
HETATM   14  C   UNK     0      -9.756  -1.908  -3.112  0.00  0.00     0.006 C 
HETATM   15  C   UNK     0     -10.160  -0.538  -2.594  0.00  0.00     0.006 C 
HETATM   16  C   UNK     0      -9.443  -7.025   0.037  0.00  0.00     0.169 C 
HETATM   17  C   UNK     0     -12.047  -1.262  -0.126  0.00  0.00     0.012 C 
HETATM   18  C   UNK     0     -10.295  -6.888  -2.969  0.00  0.00     0.016 C 
HETATM   19  C   UNK     0     -12.035   1.030  -1.997  0.00  0.00     0.040 C 
HETATM   20  C   UNK     0     -13.883  -1.470  -1.848  0.00  0.00     0.016 C 
HETATM   21  C   UNK     0     -12.410   0.148   0.348  0.00  0.00     0.036 C 
HETATM   22  C   UNK     0     -11.744   1.230  -0.505  0.00  0.00     0.218 C 
HETATM   23  C   UNK     0      -8.177  -7.578  -0.575  0.00  0.00     0.298 C 
ENDROOT
BRANCH  16  24
HETATM   24  O   UNK     0      -9.080  -6.762   1.394  0.00  0.00    -0.375 OA
HETATM   25  H   UNK     0      -8.501  -7.476   1.712  0.00  0.00     0.211 HD
ENDBRANCH  16  24
BRANCH  16  26
HETATM   26  C   UNK     0     -10.563  -7.997   0.072  0.00  0.00     0.018 C 
HETATM   27  C   UNK     0     -11.716  -7.785   0.725  0.00  0.00    -0.023 C 
BRANCH  27  28
HETATM   28  C   UNK     0     -12.859  -8.774   0.755  0.00  0.00     0.007 C 
HETATM   29  C   UNK     0     -12.349 -10.149   0.311  0.00  0.00     0.014 C 
BRANCH  28  30
HETATM   30  C   UNK     0     -14.097  -8.320  -0.068  0.00  0.00    -0.015 C 
HETATM   31  C   UNK     0     -15.433  -8.865   0.448  0.00  0.00     0.010 C 
HETATM   32  C   UNK     0     -13.941  -8.665  -1.554  0.00  0.00     0.010 C 
ENDBRANCH  28  30
ENDBRANCH  27  28
ENDBRANCH  16  26
BRANCH  22  33
HETATM   33  N   UNK     0     -12.198   2.551  -0.067  0.00  0.00     0.083 N 
HETATM   34  H   UNK     0     -11.655   3.273  -0.539  0.00  0.00     0.313 HD
HETATM   35  H   UNK     0     -12.022   2.661   0.930  0.00  0.00     0.313 HD
ENDBRANCH  22  33
TORSDOF 5
ENDMDL
MODEL 7
REMARK VINA RESULT:      -6.5      8.742     13.719
REMARK  5 active torsions:
REMARK  status: ('A' for Active; 'I' for Inactive)
REMARK    1  A    between atoms: O_2  and  C_18 
REMARK    2  A    between atoms: N_4  and  C_24 
REMARK    3  A    between atoms: C_18  and  C_26 
REMARK    4  A    between atoms: C_27  and  C_28 
REMARK    5  A    between atoms: C_28  and  C_29 
ROOT
HETATM    1  O   UNK     0     -12.649  -5.314  -4.002  0.00  0.00    -0.313 OA
HETATM    2  O   UNK     0     -11.710  -5.974  -5.983  0.00  0.00    -0.261 OA
HETATM    3  C   UNK     0     -10.737  -2.950  -2.964  0.00  0.00    -0.030 C 
HETATM    4  C   UNK     0     -11.466  -3.057  -1.593  0.00  0.00     0.001 C 
HETATM    5  C   UNK     0     -12.175  -1.752  -1.121  0.00  0.00    -0.005 C 
HETATM    6  C   UNK     0     -11.256  -0.509  -1.235  0.00  0.00    -0.002 C 
HETATM    7  C   UNK     0     -11.918   0.823  -0.694  0.00  0.00    -0.036 C 
HETATM    8  C   UNK     0     -11.935  -3.052  -3.960  0.00  0.00     0.072 C 
HETATM    9  C   UNK     0      -9.954  -1.633  -3.093  0.00  0.00     0.010 C 
HETATM   10  C   UNK     0     -12.476  -4.195  -1.843  0.00  0.00     0.039 C 
HETATM   11  C   UNK     0     -12.871  -4.076  -3.315  0.00  0.00     0.141 C 
HETATM   12  C   UNK     0     -10.729  -0.389  -2.676  0.00  0.00     0.006 C 
HETATM   13  C   UNK     0     -12.501   0.587   0.738  0.00  0.00    -0.004 C 
HETATM   14  C   UNK     0     -12.648  -1.909   0.334  0.00  0.00     0.006 C 
HETATM   15  C   UNK     0     -13.382  -0.670   0.817  0.00  0.00     0.006 C 
HETATM   16  C   UNK     0     -11.779  -3.609  -5.372  0.00  0.00     0.169 C 
HETATM   17  C   UNK     0     -13.040   1.339  -1.637  0.00  0.00     0.012 C 
HETATM   18  C   UNK     0      -9.710  -4.104  -3.080  0.00  0.00     0.016 C 
HETATM   19  C   UNK     0     -13.288   1.803   1.275  0.00  0.00     0.040 C 
HETATM   20  C   UNK     0     -10.807   1.907  -0.601  0.00  0.00     0.016 C 
HETATM   21  C   UNK     0     -13.800   2.551  -1.091  0.00  0.00     0.036 C 
HETATM   22  C   UNK     0     -14.370   2.290   0.304  0.00  0.00     0.218 C 
HETATM   23  C   UNK     0     -12.004  -5.092  -5.192  0.00  0.00     0.298 C 
ENDROOT
BRANCH  16  24
HETATM   24  O   UNK     0     -12.873  -3.195  -6.195  0.00  0.00    -0.375 OA
HETATM   25  H   UNK     0     -12.892  -2.224  -6.234  0.00  0.00     0.211 HD
ENDBRANCH  16  24
BRANCH  16  26
HETATM   26  C   UNK     0     -10.536  -3.278  -6.111  0.00  0.00     0.018 C 
HETATM   27  C   UNK     0     -10.266  -2.063  -6.614  0.00  0.00    -0.023 C 
BRANCH  27  28
HETATM   28  C   UNK     0      -8.997  -1.726  -7.361  0.00  0.00     0.007 C 
HETATM   29  C   UNK     0      -8.005  -1.062  -6.400  0.00  0.00     0.014 C 
BRANCH  28  30
HETATM   30  C   UNK     0      -9.234  -0.867  -8.635  0.00  0.00    -0.015 C 
HETATM   31  C   UNK     0      -8.533   0.495  -8.617  0.00  0.00     0.010 C 
HETATM   32  C   UNK     0     -10.730  -0.671  -8.910  0.00  0.00     0.010 C 
ENDBRANCH  28  30
ENDBRANCH  27  28
ENDBRANCH  16  26
BRANCH  22  33
HETATM   33  N   UNK     0     -15.004   3.508   0.813  0.00  0.00     0.083 N 
HETATM   34  H   UNK     0     -15.316   3.356   1.771  0.00  0.00     0.313 HD
HETATM   35  H   UNK     0     -15.837   3.716   0.265  0.00  0.00     0.313 HD
ENDBRANCH  22  33
TORSDOF 5
ENDMDL
MODEL 8
REMARK VINA RESULT:      -6.3      4.450      7.936
REMARK  5 active torsions:
REMARK  status: ('A' for Active; 'I' for Inactive)
REMARK    1  A    between atoms: O_2  and  C_18 
REMARK    2  A    between atoms: N_4  and  C_24 
REMARK    3  A    between atoms: C_18  and  C_26 
REMARK    4  A    between atoms: C_27  and  C_28 
REMARK    5  A    between atoms: C_28  and  C_29 
ROOT
HETATM    1  O   UNK     0      -6.719  -3.163 -15.075  0.00  0.00    -0.313 OA
HETATM    2  O   UNK     0      -6.299  -5.167 -16.098  0.00  0.00    -0.261 OA
HETATM    3  C   UNK     0      -5.575  -3.533 -12.096  0.00  0.00    -0.030 C 
HETATM    4  C   UNK     0      -6.322  -2.221 -11.721  0.00  0.00     0.001 C 
HETATM    5  C   UNK     0      -5.412  -1.077 -11.182  0.00  0.00    -0.005 C 
HETATM    6  C   UNK     0      -4.438  -1.567 -10.081  0.00  0.00    -0.002 C 
HETATM    7  C   UNK     0      -3.548  -0.416  -9.458  0.00  0.00    -0.036 C 
HETATM    8  C   UNK     0      -4.962  -3.156 -13.481  0.00  0.00     0.072 C 
HETATM    9  C   UNK     0      -4.515  -3.907 -11.047  0.00  0.00     0.010 C 
HETATM   10  C   UNK     0      -6.999  -1.833 -13.051  0.00  0.00     0.039 C 
HETATM   11  C   UNK     0      -6.044  -2.304 -14.148  0.00  0.00     0.141 C 
HETATM   12  C   UNK     0      -3.616  -2.755 -10.613  0.00  0.00     0.006 C 
HETATM   13  C   UNK     0      -4.454   0.783  -9.024  0.00  0.00    -0.004 C 
HETATM   14  C   UNK     0      -6.278   0.067 -10.628  0.00  0.00     0.006 C 
HETATM   15  C   UNK     0      -5.425   1.222 -10.131  0.00  0.00     0.006 C 
HETATM   16  C   UNK     0      -4.669  -4.197 -14.557  0.00  0.00     0.169 C 
HETATM   17  C   UNK     0      -2.463   0.082 -10.453  0.00  0.00     0.012 C 
HETATM   18  C   UNK     0      -6.597  -4.698 -12.146  0.00  0.00     0.016 C 
HETATM   19  C   UNK     0      -3.642   2.003  -8.536  0.00  0.00     0.040 C 
HETATM   20  C   UNK     0      -2.844  -0.985  -8.194  0.00  0.00     0.016 C 
HETATM   21  C   UNK     0      -1.663   1.285  -9.945  0.00  0.00     0.036 C 
HETATM   22  C   UNK     0      -2.571   2.448  -9.539  0.00  0.00     0.218 C 
HETATM   23  C   UNK     0      -5.966  -4.280 -15.328  0.00  0.00     0.298 C 
ENDROOT
BRANCH  16  24
HETATM   24  O   UNK     0      -3.738  -3.680 -15.511  0.00  0.00    -0.375 OA
HETATM   25  H   UNK     0      -3.557  -4.362 -16.180  0.00  0.00     0.211 HD
ENDBRANCH  16  24
BRANCH  16  26
HETATM   26  C   UNK     0      -4.148  -5.514 -14.118  0.00  0.00     0.018 C 
HETATM   27  C   UNK     0      -2.898  -5.714 -13.674  0.00  0.00    -0.023 C 
BRANCH  27  28
HETATM   28  C   UNK     0      -2.371  -7.056 -13.222  0.00  0.00     0.007 C 
HETATM   29  C   UNK     0      -3.512  -7.861 -12.590  0.00  0.00     0.014 C 
BRANCH  28  30
HETATM   30  C   UNK     0      -1.140  -6.956 -12.277  0.00  0.00    -0.015 C 
HETATM   31  C   UNK     0      -0.720  -8.286 -11.644  0.00  0.00     0.010 C 
HETATM   32  C   UNK     0      -1.359  -5.910 -11.178  0.00  0.00     0.010 C 
ENDBRANCH  28  30
ENDBRANCH  27  28
ENDBRANCH  16  26
BRANCH  22  33
HETATM   33  N   UNK     0      -1.762   3.531  -8.977  0.00  0.00     0.083 N 
HETATM   34  H   UNK     0      -2.280   3.994  -8.232  0.00  0.00     0.313 HD
HETATM   35  H   UNK     0      -1.589   4.236  -9.692  0.00  0.00     0.313 HD
ENDBRANCH  22  33
TORSDOF 5
ENDMDL
MODEL 9
REMARK VINA RESULT:      -6.3      2.866      4.268
REMARK  5 active torsions:
REMARK  status: ('A' for Active; 'I' for Inactive)
REMARK    1  A    between atoms: O_2  and  C_18 
REMARK    2  A    between atoms: N_4  and  C_24 
REMARK    3  A    between atoms: C_18  and  C_26 
REMARK    4  A    between atoms: C_27  and  C_28 
REMARK    5  A    between atoms: C_28  and  C_29 
ROOT
HETATM    1  O   UNK     0      -1.739   2.002  -9.335  0.00  0.00    -0.313 OA
HETATM    2  O   UNK     0      -3.205   3.700  -8.876  0.00  0.00    -0.261 OA
HETATM    3  C   UNK     0      -3.522  -0.663  -9.137  0.00  0.00    -0.030 C 
HETATM    4  C   UNK     0      -2.191  -1.470  -9.157  0.00  0.00     0.001 C 
HETATM    5  C   UNK     0      -2.053  -2.484 -10.333  0.00  0.00    -0.005 C 
HETATM    6  C   UNK     0      -3.314  -3.370 -10.498  0.00  0.00    -0.002 C 
HETATM    7  C   UNK     0      -3.180  -4.461 -11.636  0.00  0.00    -0.036 C 
HETATM    8  C   UNK     0      -3.248   0.410 -10.238  0.00  0.00     0.072 C 
HETATM    9  C   UNK     0      -4.735  -1.555  -9.450  0.00  0.00     0.010 C 
HETATM   10  C   UNK     0      -1.129  -0.356  -9.237  0.00  0.00     0.039 C 
HETATM   11  C   UNK     0      -1.771   0.764 -10.055  0.00  0.00     0.141 C 
HETATM   12  C   UNK     0      -4.556  -2.474 -10.652  0.00  0.00     0.006 C 
HETATM   13  C   UNK     0      -1.852  -5.266 -11.452  0.00  0.00    -0.004 C 
HETATM   14  C   UNK     0      -0.822  -3.378 -10.113  0.00  0.00     0.006 C 
HETATM   15  C   UNK     0      -0.630  -4.353 -11.262  0.00  0.00     0.006 C 
HETATM   16  C   UNK     0      -3.909   1.785 -10.221  0.00  0.00     0.169 C 
HETATM   17  C   UNK     0      -3.215  -3.828 -13.055  0.00  0.00     0.012 C 
HETATM   18  C   UNK     0      -3.738  -0.081  -7.717  0.00  0.00     0.016 C 
HETATM   19  C   UNK     0      -1.582  -6.255 -12.607  0.00  0.00     0.040 C 
HETATM   20  C   UNK     0      -4.376  -5.445 -11.500  0.00  0.00     0.016 C 
HETATM   21  C   UNK     0      -2.957  -4.828 -14.186  0.00  0.00     0.036 C 
HETATM   22  C   UNK     0      -1.646  -5.592 -13.988  0.00  0.00     0.218 C 
HETATM   23  C   UNK     0      -2.962   2.620  -9.390  0.00  0.00     0.298 C 
ENDROOT
BRANCH  16  24
HETATM   24  O   UNK     0      -3.846   2.385 -11.517  0.00  0.00    -0.375 OA
HETATM   25  H   UNK     0      -4.749   2.572 -11.825  0.00  0.00     0.211 HD
ENDBRANCH  16  24
BRANCH  16  26
HETATM   26  C   UNK     0      -5.322   1.866  -9.778  0.00  0.00     0.018 C 
HETATM   27  C   UNK     0      -6.355   1.379 -10.483  0.00  0.00    -0.023 C 
BRANCH  27  28
HETATM   28  C   UNK     0      -7.795   1.457 -10.028  0.00  0.00     0.007 C 
HETATM   29  C   UNK     0      -7.935   2.571  -8.984  0.00  0.00     0.014 C 
BRANCH  28  30
HETATM   30  C   UNK     0      -8.359   0.104  -9.512  0.00  0.00    -0.015 C 
HETATM   31  C   UNK     0      -7.849  -0.306  -8.126  0.00  0.00     0.010 C 
HETATM   32  C   UNK     0      -8.099  -1.031 -10.511  0.00  0.00     0.010 C 
ENDBRANCH  28  30
ENDBRANCH  27  28
ENDBRANCH  16  26
BRANCH  22  33
HETATM   33  N   UNK     0      -1.497  -6.594 -15.044  0.00  0.00     0.083 N 
HETATM   34  H   UNK     0      -2.402  -6.774 -15.476  0.00  0.00     0.313 HD
HETATM   35  H   UNK     0      -1.188  -7.477 -14.639  0.00  0.00     0.313 HD
ENDBRANCH  22  33
TORSDOF 5
ENDMDL
