REMARK VINA RESULT:      -8.1      0.000      0.000
REMARK  5 active torsions:
REMARK  status: ('A' for Active; 'I' for Inactive)
REMARK    1  A    between atoms: O_2  and  C_18 
REMARK    2  A    between atoms: N_4  and  C_24 
REMARK    3  A    between atoms: C_18  and  C_26 
REMARK    4  A    between atoms: C_27  and  C_28 
REMARK    5  A    between atoms: C_28  and  C_29 
ROOT
HETATM    1  O   UNK     0      -2.769   0.366  -8.974  0.00  0.00    -0.313 OA
HETATM    2  O   UNK     0      -3.431   0.755  -6.817  0.00  0.00    -0.261 OA
HETATM    3  C   UNK     0      -1.649  -2.644  -8.933  0.00  0.00    -0.030 C 
HETATM    4  C   UNK     0      -1.052  -2.367 -10.343  0.00  0.00     0.001 C 
HETATM    5  C   UNK     0      -1.565  -3.312 -11.471  0.00  0.00    -0.005 C 
HETATM    6  C   UNK     0      -1.508  -4.805 -11.061  0.00  0.00    -0.002 C 
HETATM    7  C   UNK     0      -1.952  -5.799 -12.210  0.00  0.00    -0.036 C 
HETATM    8  C   UNK     0      -3.059  -1.986  -9.058  0.00  0.00     0.072 C 
HETATM    9  C   UNK     0      -1.708  -4.149  -8.623  0.00  0.00     0.010 C 
HETATM   10  C   UNK     0      -1.463  -0.902 -10.595  0.00  0.00     0.039 C 
HETATM   11  C   UNK     0      -2.812  -0.730  -9.896  0.00  0.00     0.141 C 
HETATM   12  C   UNK     0      -2.281  -5.007  -9.745  0.00  0.00     0.006 C 
HETATM   13  C   UNK     0      -1.181  -5.468 -13.530  0.00  0.00    -0.004 C 
HETATM   14  C   UNK     0      -0.738  -3.099 -12.750  0.00  0.00     0.006 C 
HETATM   15  C   UNK     0      -1.235  -3.974 -13.888  0.00  0.00     0.006 C 
HETATM   16  C   UNK     0      -3.810  -1.425  -7.855  0.00  0.00     0.169 C 
HETATM   17  C   UNK     0      -3.483  -5.740 -12.470  0.00  0.00     0.012 C 
HETATM   18  C   UNK     0      -0.735  -1.995  -7.862  0.00  0.00     0.016 C 
HETATM   19  C   UNK     0      -1.664  -6.305 -14.734  0.00  0.00     0.040 C 
HETATM   20  C   UNK     0      -1.576  -7.241 -11.767  0.00  0.00     0.016 C 
HETATM   21  C   UNK     0      -3.942  -6.585 -13.661  0.00  0.00     0.036 C 
HETATM   22  C   UNK     0      -3.182  -6.233 -14.941  0.00  0.00     0.218 C 
HETATM   23  C   UNK     0      -3.322   0.004  -7.773  0.00  0.00     0.298 C 
ENDROOT
BRANCH  16  24
HETATM   24  O   UNK     0      -5.202  -1.293  -8.152  0.00  0.00    -0.375 OA
HETATM   25  H   UNK     0      -5.568  -0.553  -7.639  0.00  0.00     0.211 HD
ENDBRANCH  16  24
BRANCH  16  26
HETATM   26  C   UNK     0      -3.712  -2.164  -6.574  0.00  0.00     0.018 C 
HETATM   27  C   UNK     0      -4.548  -3.150  -6.213  0.00  0.00    -0.023 C 
BRANCH  27  28
HETATM   28  C   UNK     0      -4.443  -3.907  -4.909  0.00  0.00     0.007 C 
HETATM   29  C   UNK     0      -3.673  -5.211  -5.142  0.00  0.00     0.014 C 
BRANCH  28  30
HETATM   30  C   UNK     0      -5.816  -4.158  -4.223  0.00  0.00    -0.015 C 
HETATM   31  C   UNK     0      -6.815  -3.005  -4.369  0.00  0.00     0.010 C 
HETATM   32  C   UNK     0      -5.647  -4.506  -2.739  0.00  0.00     0.010 C 
ENDBRANCH  28  30
ENDBRANCH  27  28
ENDBRANCH  16  26
BRANCH  22  33
HETATM   33  N   UNK     0      -3.594  -7.131 -16.021  0.00  0.00     0.083 N 
HETATM   34  H   UNK     0      -4.293  -7.786 -15.674  0.00  0.00     0.313 HD
HETATM   35  H   UNK     0      -2.798  -7.691 -16.325  0.00  0.00     0.313 HD
ENDBRANCH  22  33
TORSDOF 5
