MODEL 1
REMARK VINA RESULT:      -7.9      0.000      0.000
REMARK  6 active torsions:
REMARK  status: ('A' for Active; 'I' for Inactive)
REMARK    1  A    between atoms: O_3  and  C_14 
REMARK    2  A    between atoms: O_4  and  C_15 
REMARK    3  A    between atoms: O_5  and  C_20 
REMARK    4  A    between atoms: C_6  and  C_12 
REMARK    5  A    between atoms: C_10  and  C_13 
REMARK    6  A    between atoms: C_13  and  C_17 
ROOT
HETATM    1  O   UNK     0      -1.933  -3.958  -8.478  0.00  0.00    -0.339 OA
HETATM    2  O   UNK     0       0.212  -0.838 -10.056  0.00  0.00    -0.292 OA
HETATM    3  C   UNK     0      -2.153  -3.525  -9.830  0.00  0.00     0.169 C 
HETATM    4  C   UNK     0      -0.877  -2.942 -10.433  0.00  0.00     0.121 C 
HETATM    5  C   UNK     0      -1.450  -2.962  -7.670  0.00  0.00     0.095 A 
HETATM    6  C   UNK     0      -0.731  -1.862  -8.149  0.00  0.00     0.077 A 
HETATM    7  C   UNK     0      -1.681  -3.096  -6.301  0.00  0.00     0.014 A 
HETATM    8  C   UNK     0      -0.424  -1.776  -9.592  0.00  0.00     0.167 C 
HETATM    9  C   UNK     0      -0.272  -0.881  -7.267  0.00  0.00     0.085 A 
HETATM   10  C   UNK     0      -1.223  -2.118  -5.418  0.00  0.00     0.077 A 
HETATM   11  C   UNK     0      -0.524  -1.010  -5.901  0.00  0.00     0.074 A 
ENDROOT
BRANCH   3  12
HETATM   12  C   UNK     0      -2.647  -4.708 -10.637  0.00  0.00    -0.029 A 
HETATM   13  C   UNK     0      -4.017  -4.933 -10.775  0.00  0.00     0.010 A 
HETATM   14  C   UNK     0      -4.472  -6.023 -11.518  0.00  0.00     0.001 A 
HETATM   15  C   UNK     0      -3.558  -6.885 -12.123  0.00  0.00     0.000 A 
HETATM   16  C   UNK     0      -2.188  -6.659 -11.984  0.00  0.00     0.001 A 
HETATM   17  C   UNK     0      -1.733  -5.571 -11.240  0.00  0.00     0.010 A 
ENDBRANCH   3  12
BRANCH   7  18
HETATM   18  C   UNK     0      -2.430  -4.277  -5.771  0.00  0.00     0.085 C 
BRANCH  18  19
HETATM   19  C   UNK     0      -3.757  -3.925  -5.136  0.00  0.00    -0.021 A 
HETATM   20  C   UNK     0      -3.987  -4.217  -3.803  0.00  0.00     0.072 A 
HETATM   21  C   UNK     0      -5.217  -3.886  -3.233  0.00  0.00     0.037 A 
HETATM   22  C   UNK     0      -6.199  -3.267  -4.006  0.00  0.00     0.003 A 
HETATM   23  C   UNK     0      -5.951  -2.980  -5.348  0.00  0.00     0.001 A 
HETATM   24  C   UNK     0      -4.722  -3.311  -5.918  0.00  0.00     0.010 A 
BRANCH  20  25
HETATM   25  O   UNK     0      -3.039  -4.822  -3.034  0.00  0.00    -0.360 OA
HETATM   26  H   UNK     0      -2.646  -4.162  -2.437  0.00  0.00     0.217 HD
ENDBRANCH  20  25
ENDBRANCH  18  19
ENDBRANCH   7  18
BRANCH   9  27
HETATM   27  O   UNK     0       0.429   0.212  -7.682  0.00  0.00    -0.360 OA
HETATM   28  H   UNK     0       0.245   0.378  -8.623  0.00  0.00     0.217 HD
ENDBRANCH   9  27
BRANCH  10  29
HETATM   29  O   UNK     0      -1.447  -2.226  -4.078  0.00  0.00    -0.360 OA
HETATM   30  H   UNK     0      -1.807  -3.109  -3.885  0.00  0.00     0.217 HD
ENDBRANCH  10  29
TORSDOF 6
ENDMDL
MODEL 2
REMARK VINA RESULT:      -7.7      3.852      6.358
REMARK  6 active torsions:
REMARK  status: ('A' for Active; 'I' for Inactive)
REMARK    1  A    between atoms: O_3  and  C_14 
REMARK    2  A    between atoms: O_4  and  C_15 
REMARK    3  A    between atoms: O_5  and  C_20 
REMARK    4  A    between atoms: C_6  and  C_12 
REMARK    5  A    between atoms: C_10  and  C_13 
REMARK    6  A    between atoms: C_13  and  C_17 
ROOT
HETATM    1  O   UNK     0      -6.354  -1.592  -5.827  0.00  0.00    -0.339 OA
HETATM    2  O   UNK     0      -2.859  -3.404  -6.982  0.00  0.00    -0.292 OA
HETATM    3  C   UNK     0      -5.379  -0.878  -6.605  0.00  0.00     0.169 C 
HETATM    4  C   UNK     0      -4.593  -1.830  -7.505  0.00  0.00     0.121 C 
HETATM    5  C   UNK     0      -5.805  -2.597  -5.075  0.00  0.00     0.095 A 
HETATM    6  C   UNK     0      -4.606  -3.239  -5.403  0.00  0.00     0.077 A 
HETATM    7  C   UNK     0      -6.518  -2.996  -3.944  0.00  0.00     0.014 A 
HETATM    8  C   UNK     0      -3.906  -2.862  -6.648  0.00  0.00     0.167 C 
HETATM    9  C   UNK     0      -4.103  -4.254  -4.587  0.00  0.00     0.085 A 
HETATM   10  C   UNK     0      -6.018  -4.011  -3.127  0.00  0.00     0.077 A 
HETATM   11  C   UNK     0      -4.811  -4.635  -3.445  0.00  0.00     0.074 A 
ENDROOT
BRANCH   3  12
HETATM   12  C   UNK     0      -6.096   0.177  -7.420  0.00  0.00    -0.029 A 
HETATM   13  C   UNK     0      -7.380  -0.071  -7.905  0.00  0.00     0.010 A 
HETATM   14  C   UNK     0      -8.040   0.902  -8.656  0.00  0.00     0.001 A 
HETATM   15  C   UNK     0      -7.418   2.121  -8.921  0.00  0.00     0.000 A 
HETATM   16  C   UNK     0      -6.134   2.369  -8.435  0.00  0.00     0.001 A 
HETATM   17  C   UNK     0      -5.473   1.396  -7.685  0.00  0.00     0.010 A 
ENDBRANCH   3  12
BRANCH   7  18
HETATM   18  C   UNK     0      -7.811  -2.333  -3.592  0.00  0.00     0.085 C 
BRANCH  18  19
HETATM   19  C   UNK     0      -9.014  -2.930  -4.290  0.00  0.00    -0.021 A 
HETATM   20  C   UNK     0      -9.778  -3.892  -3.653  0.00  0.00     0.072 A 
HETATM   21  C   UNK     0     -10.883  -4.432  -4.312  0.00  0.00     0.037 A 
HETATM   22  C   UNK     0     -11.207  -4.002  -5.598  0.00  0.00     0.003 A 
HETATM   23  C   UNK     0     -10.426  -3.031  -6.226  0.00  0.00     0.001 A 
HETATM   24  C   UNK     0      -9.321  -2.492  -5.568  0.00  0.00     0.010 A 
BRANCH  20  25
HETATM   25  O   UNK     0      -9.476  -4.324  -2.397  0.00  0.00    -0.360 OA
HETATM   26  H   UNK     0     -10.045  -5.081  -2.175  0.00  0.00     0.217 HD
ENDBRANCH  20  25
ENDBRANCH  18  19
ENDBRANCH   7  18
BRANCH   9  27
HETATM   27  O   UNK     0      -2.940  -4.909  -4.858  0.00  0.00    -0.360 OA
HETATM   28  H   UNK     0      -2.388  -4.937  -4.058  0.00  0.00     0.217 HD
ENDBRANCH   9  27
BRANCH  10  29
HETATM   29  O   UNK     0      -6.695  -4.407  -2.012  0.00  0.00    -0.360 OA
HETATM   30  H   UNK     0      -7.384  -5.044  -2.267  0.00  0.00     0.217 HD
ENDBRANCH  10  29
TORSDOF 6
ENDMDL
MODEL 3
REMARK VINA RESULT:      -7.5      2.237      2.841
REMARK  6 active torsions:
REMARK  status: ('A' for Active; 'I' for Inactive)
REMARK    1  A    between atoms: O_3  and  C_14 
REMARK    2  A    between atoms: O_4  and  C_15 
REMARK    3  A    between atoms: O_5  and  C_20 
REMARK    4  A    between atoms: C_6  and  C_12 
REMARK    5  A    between atoms: C_10  and  C_13 
REMARK    6  A    between atoms: C_13  and  C_17 
ROOT
HETATM    1  O   UNK     0      -1.829  -3.467 -10.274  0.00  0.00    -0.339 OA
HETATM    2  O   UNK     0       0.724  -0.631 -11.782  0.00  0.00    -0.292 OA
HETATM    3  C   UNK     0      -1.369  -3.542 -11.633  0.00  0.00     0.169 C 
HETATM    4  C   UNK     0       0.022  -2.925 -11.775  0.00  0.00     0.121 C 
HETATM    5  C   UNK     0      -1.834  -2.188  -9.781  0.00  0.00     0.095 A 
HETATM    6  C   UNK     0      -1.005  -1.172 -10.267  0.00  0.00     0.077 A 
HETATM    7  C   UNK     0      -2.704  -1.926  -8.723  0.00  0.00     0.014 A 
HETATM    8  C   UNK     0      -0.031  -1.486 -11.333  0.00  0.00     0.167 C 
HETATM    9  C   UNK     0      -1.067   0.111  -9.719  0.00  0.00     0.085 A 
HETATM   10  C   UNK     0      -2.767  -0.645  -8.173  0.00  0.00     0.077 A 
HETATM   11  C   UNK     0      -1.953   0.373  -8.674  0.00  0.00     0.074 A 
ENDROOT
BRANCH   3  12
HETATM   12  C   UNK     0      -1.368  -4.995 -12.059  0.00  0.00    -0.029 A 
HETATM   13  C   UNK     0      -1.181  -5.999 -11.110  0.00  0.00     0.010 A 
HETATM   14  C   UNK     0      -1.180  -7.337 -11.502  0.00  0.00     0.001 A 
HETATM   15  C   UNK     0      -1.369  -7.672 -12.843  0.00  0.00     0.000 A 
HETATM   16  C   UNK     0      -1.556  -6.667 -13.792  0.00  0.00     0.001 A 
HETATM   17  C   UNK     0      -1.556  -5.328 -13.400  0.00  0.00     0.010 A 
ENDBRANCH   3  12
BRANCH   7  18
HETATM   18  C   UNK     0      -3.582  -3.008  -8.179  0.00  0.00     0.085 C 
BRANCH  18  19
HETATM   19  C   UNK     0      -3.141  -3.533  -6.830  0.00  0.00    -0.021 A 
HETATM   20  C   UNK     0      -3.932  -3.326  -5.713  0.00  0.00     0.072 A 
HETATM   21  C   UNK     0      -3.510  -3.816  -4.477  0.00  0.00     0.037 A 
HETATM   22  C   UNK     0      -2.302  -4.506  -4.377  0.00  0.00     0.003 A 
HETATM   23  C   UNK     0      -1.516  -4.706  -5.512  0.00  0.00     0.001 A 
HETATM   24  C   UNK     0      -1.938  -4.215  -6.747  0.00  0.00     0.010 A 
BRANCH  20  25
HETATM   25  O   UNK     0      -5.114  -2.654  -5.794  0.00  0.00    -0.360 OA
HETATM   26  H   UNK     0      -5.061  -2.003  -6.514  0.00  0.00     0.217 HD
ENDBRANCH  20  25
ENDBRANCH  18  19
ENDBRANCH   7  18
BRANCH   9  27
HETATM   27  O   UNK     0      -0.284   1.137 -10.157  0.00  0.00    -0.360 OA
HETATM   28  H   UNK     0       0.302   1.430  -9.438  0.00  0.00     0.217 HD
ENDBRANCH   9  27
BRANCH  10  29
HETATM   29  O   UNK     0      -3.618  -0.368  -7.145  0.00  0.00    -0.360 OA
HETATM   30  H   UNK     0      -3.758   0.594  -7.098  0.00  0.00     0.217 HD
ENDBRANCH  10  29
TORSDOF 6
ENDMDL
MODEL 4
REMARK VINA RESULT:      -7.5      3.074      6.892
REMARK  6 active torsions:
REMARK  status: ('A' for Active; 'I' for Inactive)
REMARK    1  A    between atoms: O_3  and  C_14 
REMARK    2  A    between atoms: O_4  and  C_15 
REMARK    3  A    between atoms: O_5  and  C_20 
REMARK    4  A    between atoms: C_6  and  C_12 
REMARK    5  A    between atoms: C_10  and  C_13 
REMARK    6  A    between atoms: C_13  and  C_17 
ROOT
HETATM    1  O   UNK     0      -5.416  -1.581  -6.288  0.00  0.00    -0.339 OA
HETATM    2  O   UNK     0      -7.894  -3.134  -3.411  0.00  0.00    -0.292 OA
HETATM    3  C   UNK     0      -6.842  -1.568  -6.462  0.00  0.00     0.169 C 
HETATM    4  C   UNK     0      -7.558  -1.480  -5.116  0.00  0.00     0.121 C 
HETATM    5  C   UNK     0      -4.988  -2.591  -5.466  0.00  0.00     0.095 A 
HETATM    6  C   UNK     0      -5.791  -3.177  -4.482  0.00  0.00     0.077 A 
HETATM    7  C   UNK     0      -3.669  -3.015  -5.627  0.00  0.00     0.014 A 
HETATM    8  C   UNK     0      -7.159  -2.660  -4.269  0.00  0.00     0.167 C 
HETATM    9  C   UNK     0      -5.289  -4.206  -3.683  0.00  0.00     0.085 A 
HETATM   10  C   UNK     0      -3.164  -4.042  -4.829  0.00  0.00     0.077 A 
HETATM   11  C   UNK     0      -3.974  -4.639  -3.862  0.00  0.00     0.074 A 
ENDROOT
BRANCH   3  12
HETATM   12  C   UNK     0      -7.205  -0.397  -7.351  0.00  0.00    -0.029 A 
HETATM   13  C   UNK     0      -6.328   0.680  -7.477  0.00  0.00     0.010 A 
HETATM   14  C   UNK     0      -6.662   1.759  -8.296  0.00  0.00     0.001 A 
HETATM   15  C   UNK     0      -7.872   1.760  -8.989  0.00  0.00     0.000 A 
HETATM   16  C   UNK     0      -8.749   0.682  -8.863  0.00  0.00     0.001 A 
HETATM   17  C   UNK     0      -8.415  -0.396  -8.044  0.00  0.00     0.010 A 
ENDBRANCH   3  12
BRANCH   7  18
HETATM   18  C   UNK     0      -2.791  -2.383  -6.661  0.00  0.00     0.085 C 
BRANCH  18  19
HETATM   19  C   UNK     0      -2.747  -3.142  -7.970  0.00  0.00    -0.021 A 
HETATM   20  C   UNK     0      -3.552  -2.749  -9.026  0.00  0.00     0.072 A 
HETATM   21  C   UNK     0      -3.498  -3.460 -10.225  0.00  0.00     0.037 A 
HETATM   22  C   UNK     0      -2.640  -4.552 -10.351  0.00  0.00     0.003 A 
HETATM   23  C   UNK     0      -1.836  -4.935  -9.277  0.00  0.00     0.001 A 
HETATM   24  C   UNK     0      -1.890  -4.225  -8.078  0.00  0.00     0.010 A 
BRANCH  20  25
HETATM   25  O   UNK     0      -4.395  -1.685  -8.920  0.00  0.00    -0.360 OA
HETATM   26  H   UNK     0      -4.460  -1.244  -9.785  0.00  0.00     0.217 HD
ENDBRANCH  20  25
ENDBRANCH  18  19
ENDBRANCH   7  18
BRANCH   9  27
HETATM   27  O   UNK     0      -6.029  -4.812  -2.713  0.00  0.00    -0.360 OA
HETATM   28  H   UNK     0      -6.239  -5.722  -2.986  0.00  0.00     0.217 HD
ENDBRANCH   9  27
BRANCH  10  29
HETATM   29  O   UNK     0      -1.881  -4.477  -4.979  0.00  0.00    -0.360 OA
HETATM   30  H   UNK     0      -1.751  -5.276  -4.441  0.00  0.00     0.217 HD
ENDBRANCH  10  29
TORSDOF 6
ENDMDL
MODEL 5
REMARK VINA RESULT:      -7.4      2.653      4.328
REMARK  6 active torsions:
REMARK  status: ('A' for Active; 'I' for Inactive)
REMARK    1  A    between atoms: O_3  and  C_14 
REMARK    2  A    between atoms: O_4  and  C_15 
REMARK    3  A    between atoms: O_5  and  C_20 
REMARK    4  A    between atoms: C_6  and  C_12 
REMARK    5  A    between atoms: C_10  and  C_13 
REMARK    6  A    between atoms: C_13  and  C_17 
ROOT
HETATM    1  O   UNK     0      -2.909  -3.459 -10.506  0.00  0.00    -0.339 OA
HETATM    2  O   UNK     0      -6.576  -2.505 -12.080  0.00  0.00    -0.292 OA
HETATM    3  C   UNK     0      -3.791  -4.486 -10.990  0.00  0.00     0.169 C 
HETATM    4  C   UNK     0      -4.671  -3.963 -12.123  0.00  0.00     0.121 C 
HETATM    5  C   UNK     0      -3.575  -2.333 -10.097  0.00  0.00     0.095 A 
HETATM    6  C   UNK     0      -4.835  -1.965 -10.579  0.00  0.00     0.077 A 
HETATM    7  C   UNK     0      -2.922  -1.519  -9.172  0.00  0.00     0.014 A 
HETATM    8  C   UNK     0      -5.478  -2.794 -11.620  0.00  0.00     0.167 C 
HETATM    9  C   UNK     0      -5.457  -0.804 -10.114  0.00  0.00     0.085 A 
HETATM   10  C   UNK     0      -3.540  -0.359  -8.706  0.00  0.00     0.077 A 
HETATM   11  C   UNK     0      -4.807  -0.004  -9.172  0.00  0.00     0.074 A 
ENDROOT
BRANCH   3  12
HETATM   12  C   UNK     0      -2.952  -5.661 -11.448  0.00  0.00    -0.029 A 
HETATM   13  C   UNK     0      -1.624  -5.771 -11.035  0.00  0.00     0.010 A 
HETATM   14  C   UNK     0      -0.851  -6.853 -11.456  0.00  0.00     0.001 A 
HETATM   15  C   UNK     0      -1.406  -7.825 -12.289  0.00  0.00     0.000 A 
HETATM   16  C   UNK     0      -2.734  -7.713 -12.702  0.00  0.00     0.001 A 
HETATM   17  C   UNK     0      -3.507  -6.631 -12.281  0.00  0.00     0.010 A 
ENDBRANCH   3  12
BRANCH   7  18
HETATM   18  C   UNK     0      -1.565  -1.889  -8.663  0.00  0.00     0.085 C 
BRANCH  18  19
HETATM   19  C   UNK     0      -1.591  -2.716  -7.396  0.00  0.00    -0.021 A 
HETATM   20  C   UNK     0      -1.365  -2.113  -6.170  0.00  0.00     0.072 A 
HETATM   21  C   UNK     0      -1.392  -2.891  -5.012  0.00  0.00     0.037 A 
HETATM   22  C   UNK     0      -1.646  -4.259  -5.097  0.00  0.00     0.003 A 
HETATM   23  C   UNK     0      -1.871  -4.851  -6.340  0.00  0.00     0.001 A 
HETATM   24  C   UNK     0      -1.843  -4.074  -7.498  0.00  0.00     0.010 A 
BRANCH  20  25
HETATM   25  O   UNK     0      -1.115  -0.778  -6.069  0.00  0.00    -0.360 OA
HETATM   26  H   UNK     0      -1.435  -0.459  -5.208  0.00  0.00     0.217 HD
ENDBRANCH  20  25
ENDBRANCH  18  19
ENDBRANCH   7  18
BRANCH   9  27
HETATM   27  O   UNK     0      -6.685  -0.402 -10.547  0.00  0.00    -0.360 OA
HETATM   28  H   UNK     0      -6.580   0.263 -11.249  0.00  0.00     0.217 HD
ENDBRANCH   9  27
BRANCH  10  29
HETATM   29  O   UNK     0      -2.922   0.444  -7.794  0.00  0.00    -0.360 OA
HETATM   30  H   UNK     0      -3.202   1.364  -7.937  0.00  0.00     0.217 HD
ENDBRANCH  10  29
TORSDOF 6
ENDMDL
MODEL 6
REMARK VINA RESULT:      -7.4      5.574      8.234
REMARK  6 active torsions:
REMARK  status: ('A' for Active; 'I' for Inactive)
REMARK    1  A    between atoms: O_3  and  C_14 
REMARK    2  A    between atoms: O_4  and  C_15 
REMARK    3  A    between atoms: O_5  and  C_20 
REMARK    4  A    between atoms: C_6  and  C_12 
REMARK    5  A    between atoms: C_10  and  C_13 
REMARK    6  A    between atoms: C_13  and  C_17 
ROOT
HETATM    1  O   UNK     0      -8.575  -1.206  -6.122  0.00  0.00    -0.339 OA
HETATM    2  O   UNK     0     -11.683  -2.470  -8.484  0.00  0.00    -0.292 OA
HETATM    3  C   UNK     0      -8.514  -1.070  -7.551  0.00  0.00     0.169 C 
HETATM    4  C   UNK     0      -9.910  -0.890  -8.145  0.00  0.00     0.121 C 
HETATM    5  C   UNK     0      -9.389  -2.232  -5.718  0.00  0.00     0.095 A 
HETATM    6  C   UNK     0     -10.450  -2.723  -6.486  0.00  0.00     0.077 A 
HETATM    7  C   UNK     0      -9.137  -2.774  -4.458  0.00  0.00     0.014 A 
HETATM    8  C   UNK     0     -10.756  -2.082  -7.782  0.00  0.00     0.167 C 
HETATM    9  C   UNK     0     -11.237  -3.774  -6.011  0.00  0.00     0.085 A 
HETATM   10  C   UNK     0      -9.922  -3.825  -3.981  0.00  0.00     0.077 A 
HETATM   11  C   UNK     0     -10.967  -4.327  -4.759  0.00  0.00     0.074 A 
ENDROOT
BRANCH   3  12
HETATM   12  C   UNK     0      -7.623   0.109  -7.882  0.00  0.00    -0.029 A 
HETATM   13  C   UNK     0      -6.385   0.244  -7.255  0.00  0.00     0.010 A 
HETATM   14  C   UNK     0      -5.564   1.330  -7.560  0.00  0.00     0.001 A 
HETATM   15  C   UNK     0      -5.981   2.280  -8.492  0.00  0.00     0.000 A 
HETATM   16  C   UNK     0      -7.220   2.144  -9.119  0.00  0.00     0.001 A 
HETATM   17  C   UNK     0      -8.041   1.059  -8.813  0.00  0.00     0.010 A 
ENDBRANCH   3  12
BRANCH   7  18
HETATM   18  C   UNK     0      -8.019  -2.246  -3.616  0.00  0.00     0.085 C 
BRANCH  18  19
HETATM   19  C   UNK     0      -6.719  -3.003  -3.781  0.00  0.00    -0.021 A 
HETATM   20  C   UNK     0      -6.216  -3.753  -2.731  0.00  0.00     0.072 A 
HETATM   21  C   UNK     0      -5.016  -4.445  -2.900  0.00  0.00     0.037 A 
HETATM   22  C   UNK     0      -4.337  -4.376  -4.116  0.00  0.00     0.003 A 
HETATM   23  C   UNK     0      -4.857  -3.616  -5.163  0.00  0.00     0.001 A 
HETATM   24  C   UNK     0      -6.056  -2.924  -4.994  0.00  0.00     0.010 A 
BRANCH  20  25
HETATM   25  O   UNK     0      -6.867  -3.830  -1.536  0.00  0.00    -0.360 OA
HETATM   26  H   UNK     0      -6.227  -3.693  -0.817  0.00  0.00     0.217 HD
ENDBRANCH  20  25
ENDBRANCH  18  19
ENDBRANCH   7  18
BRANCH   9  27
HETATM   27  O   UNK     0     -12.279  -4.292  -6.721  0.00  0.00    -0.360 OA
HETATM   28  H   UNK     0     -12.045  -5.180  -7.041  0.00  0.00     0.217 HD
ENDBRANCH   9  27
BRANCH  10  29
HETATM   29  O   UNK     0      -9.684  -4.375  -2.757  0.00  0.00    -0.360 OA
HETATM   30  H   UNK     0      -8.821  -4.823  -2.771  0.00  0.00     0.217 HD
ENDBRANCH  10  29
TORSDOF 6
ENDMDL
MODEL 7
REMARK VINA RESULT:      -7.3      4.454      7.907
REMARK  6 active torsions:
REMARK  status: ('A' for Active; 'I' for Inactive)
REMARK    1  A    between atoms: O_3  and  C_14 
REMARK    2  A    between atoms: O_4  and  C_15 
REMARK    3  A    between atoms: O_5  and  C_20 
REMARK    4  A    between atoms: C_6  and  C_12 
REMARK    5  A    between atoms: C_10  and  C_13 
REMARK    6  A    between atoms: C_13  and  C_17 
ROOT
HETATM    1  O   UNK     0      -7.299  -3.341  -3.656  0.00  0.00    -0.339 OA
HETATM    2  O   UNK     0      -3.367  -4.320  -4.297  0.00  0.00    -0.292 OA
HETATM    3  C   UNK     0      -6.805  -4.650  -3.329  0.00  0.00     0.169 C 
HETATM    4  C   UNK     0      -5.328  -4.598  -2.943  0.00  0.00     0.121 C 
HETATM    5  C   UNK     0      -6.580  -2.733  -4.652  0.00  0.00     0.095 A 
HETATM    6  C   UNK     0      -5.244  -3.038  -4.934  0.00  0.00     0.077 A 
HETATM    7  C   UNK     0      -7.235  -1.744  -5.385  0.00  0.00     0.014 A 
HETATM    8  C   UNK     0      -4.539  -4.029  -4.095  0.00  0.00     0.167 C 
HETATM    9  C   UNK     0      -4.574  -2.380  -5.967  0.00  0.00     0.085 A 
HETATM   10  C   UNK     0      -6.567  -1.084  -6.417  0.00  0.00     0.077 A 
HETATM   11  C   UNK     0      -5.240  -1.405  -6.711  0.00  0.00     0.074 A 
ENDROOT
BRANCH   3  12
HETATM   12  C   UNK     0      -7.645  -5.210  -2.199  0.00  0.00    -0.029 A 
HETATM   13  C   UNK     0      -8.622  -6.169  -2.466  0.00  0.00     0.010 A 
HETATM   14  C   UNK     0      -9.395  -6.684  -1.426  0.00  0.00     0.001 A 
HETATM   15  C   UNK     0      -9.191  -6.242  -0.119  0.00  0.00     0.000 A 
HETATM   16  C   UNK     0      -8.213  -5.282   0.147  0.00  0.00     0.001 A 
HETATM   17  C   UNK     0      -7.440  -4.766  -0.893  0.00  0.00     0.010 A 
ENDBRANCH   3  12
BRANCH   7  18
HETATM   18  C   UNK     0      -8.657  -1.392  -5.081  0.00  0.00     0.085 C 
BRANCH  18  19
HETATM   19  C   UNK     0      -9.663  -2.364  -5.659  0.00  0.00    -0.021 A 
HETATM   20  C   UNK     0     -10.382  -3.197  -4.820  0.00  0.00     0.072 A 
HETATM   21  C   UNK     0     -11.306  -4.087  -5.370  0.00  0.00     0.037 A 
HETATM   22  C   UNK     0     -11.496  -4.129  -6.751  0.00  0.00     0.003 A 
HETATM   23  C   UNK     0     -10.762  -3.283  -7.582  0.00  0.00     0.001 A 
HETATM   24  C   UNK     0      -9.839  -2.394  -7.033  0.00  0.00     0.010 A 
BRANCH  20  25
HETATM   25  O   UNK     0     -10.209  -3.169  -3.469  0.00  0.00    -0.360 OA
HETATM   26  H   UNK     0      -9.759  -3.984  -3.189  0.00  0.00     0.217 HD
ENDBRANCH  20  25
ENDBRANCH  18  19
ENDBRANCH   7  18
BRANCH   9  27
HETATM   27  O   UNK     0      -3.275  -2.641  -6.286  0.00  0.00    -0.360 OA
HETATM   28  H   UNK     0      -3.047  -3.544  -6.005  0.00  0.00     0.217 HD
ENDBRANCH   9  27
BRANCH  10  29
HETATM   29  O   UNK     0      -7.193  -0.122  -7.152  0.00  0.00    -0.360 OA
HETATM   30  H   UNK     0      -6.753   0.732  -7.001  0.00  0.00     0.217 HD
ENDBRANCH  10  29
TORSDOF 6
ENDMDL
MODEL 8
REMARK VINA RESULT:      -7.3      1.806      6.080
REMARK  6 active torsions:
REMARK  status: ('A' for Active; 'I' for Inactive)
REMARK    1  A    between atoms: O_3  and  C_14 
REMARK    2  A    between atoms: O_4  and  C_15 
REMARK    3  A    between atoms: O_5  and  C_20 
REMARK    4  A    between atoms: C_6  and  C_12 
REMARK    5  A    between atoms: C_10  and  C_13 
REMARK    6  A    between atoms: C_13  and  C_17 
ROOT
HETATM    1  O   UNK     0      -2.599  -3.246  -7.903  0.00  0.00    -0.339 OA
HETATM    2  O   UNK     0      -2.249   0.834  -8.166  0.00  0.00    -0.292 OA
HETATM    3  C   UNK     0      -2.642  -2.428  -6.723  0.00  0.00     0.169 C 
HETATM    4  C   UNK     0      -3.218  -1.047  -7.034  0.00  0.00     0.121 C 
HETATM    5  C   UNK     0      -1.895  -2.668  -8.928  0.00  0.00     0.095 A 
HETATM    6  C   UNK     0      -1.722  -1.286  -9.061  0.00  0.00     0.077 A 
HETATM    7  C   UNK     0      -1.360  -3.529  -9.886  0.00  0.00     0.014 A 
HETATM    8  C   UNK     0      -2.364  -0.383  -8.083  0.00  0.00     0.167 C 
HETATM    9  C   UNK     0      -0.988  -0.767 -10.130  0.00  0.00     0.085 A 
HETATM   10  C   UNK     0      -0.628  -3.013 -10.956  0.00  0.00     0.077 A 
HETATM   11  C   UNK     0      -0.438  -1.635 -11.075  0.00  0.00     0.074 A 
ENDROOT
BRANCH   3  12
HETATM   12  C   UNK     0      -3.470  -3.142  -5.676  0.00  0.00    -0.029 A 
HETATM   13  C   UNK     0      -4.860  -3.022  -5.686  0.00  0.00     0.010 A 
HETATM   14  C   UNK     0      -5.623  -3.679  -4.722  0.00  0.00     0.001 A 
HETATM   15  C   UNK     0      -4.998  -4.458  -3.748  0.00  0.00     0.000 A 
HETATM   16  C   UNK     0      -3.607  -4.577  -3.739  0.00  0.00     0.001 A 
HETATM   17  C   UNK     0      -2.844  -3.919  -4.702  0.00  0.00     0.010 A 
ENDBRANCH   3  12
BRANCH   7  18
HETATM   18  C   UNK     0      -1.555  -5.007  -9.769  0.00  0.00     0.085 C 
BRANCH  18  19
HETATM   19  C   UNK     0      -2.548  -5.574 -10.761  0.00  0.00    -0.021 A 
HETATM   20  C   UNK     0      -2.122  -6.454 -11.741  0.00  0.00     0.072 A 
HETATM   21  C   UNK     0      -3.051  -6.966 -12.648  0.00  0.00     0.037 A 
HETATM   22  C   UNK     0      -4.391  -6.589 -12.561  0.00  0.00     0.003 A 
HETATM   23  C   UNK     0      -4.802  -5.701 -11.568  0.00  0.00     0.001 A 
HETATM   24  C   UNK     0      -3.875  -5.189 -10.662  0.00  0.00     0.010 A 
BRANCH  20  25
HETATM   25  O   UNK     0      -0.817  -6.832 -11.840  0.00  0.00    -0.360 OA
HETATM   26  H   UNK     0      -0.253  -6.122 -11.488  0.00  0.00     0.217 HD
ENDBRANCH  20  25
ENDBRANCH  18  19
ENDBRANCH   7  18
BRANCH   9  27
HETATM   27  O   UNK     0      -0.786   0.569 -10.304  0.00  0.00    -0.360 OA
HETATM   28  H   UNK     0       0.137   0.789 -10.091  0.00  0.00     0.217 HD
ENDBRANCH   9  27
BRANCH  10  29
HETATM   29  O   UNK     0      -0.089  -3.839 -11.897  0.00  0.00    -0.360 OA
HETATM   30  H   UNK     0      -0.804  -4.324 -12.343  0.00  0.00     0.217 HD
ENDBRANCH  10  29
TORSDOF 6
ENDMDL
MODEL 9
REMARK VINA RESULT:      -7.1      3.402      4.839
REMARK  6 active torsions:
REMARK  status: ('A' for Active; 'I' for Inactive)
REMARK    1  A    between atoms: O_3  and  C_14 
REMARK    2  A    between atoms: O_4  and  C_15 
REMARK    3  A    between atoms: O_5  and  C_20 
REMARK    4  A    between atoms: C_6  and  C_12 
REMARK    5  A    between atoms: C_10  and  C_13 
REMARK    6  A    between atoms: C_13  and  C_17 
ROOT
HETATM    1  O   UNK     0      -4.464  -1.671  -7.057  0.00  0.00    -0.339 OA
HETATM    2  O   UNK     0      -0.646  -0.184  -7.269  0.00  0.00    -0.292 OA
HETATM    3  C   UNK     0      -4.232  -0.257  -7.163  0.00  0.00     0.169 C 
HETATM    4  C   UNK     0      -2.943   0.030  -7.931  0.00  0.00     0.121 C 
HETATM    5  C   UNK     0      -3.418  -2.343  -6.479  0.00  0.00     0.095 A 
HETATM    6  C   UNK     0      -2.099  -1.878  -6.497  0.00  0.00     0.077 A 
HETATM    7  C   UNK     0      -3.714  -3.563  -5.871  0.00  0.00     0.014 A 
HETATM    8  C   UNK     0      -1.788  -0.624  -7.216  0.00  0.00     0.167 C 
HETATM    9  C   UNK     0      -1.083  -2.613  -5.883  0.00  0.00     0.085 A 
HETATM   10  C   UNK     0      -2.701  -4.300  -5.258  0.00  0.00     0.077 A 
HETATM   11  C   UNK     0      -1.388  -3.823  -5.260  0.00  0.00     0.074 A 
ENDROOT
BRANCH   3  12
HETATM   12  C   UNK     0      -5.426   0.374  -7.846  0.00  0.00    -0.029 A 
HETATM   13  C   UNK     0      -6.353  -0.429  -8.511  0.00  0.00     0.010 A 
HETATM   14  C   UNK     0      -7.454   0.153  -9.140  0.00  0.00     0.001 A 
HETATM   15  C   UNK     0      -7.628   1.536  -9.104  0.00  0.00     0.000 A 
HETATM   16  C   UNK     0      -6.701   2.338  -8.439  0.00  0.00     0.001 A 
HETATM   17  C   UNK     0      -5.600   1.757  -7.810  0.00  0.00     0.010 A 
ENDBRANCH   3  12
BRANCH   7  18
HETATM   18  C   UNK     0      -5.116  -4.083  -5.862  0.00  0.00     0.085 C 
BRANCH  18  19
HETATM   19  C   UNK     0      -5.878  -3.762  -4.594  0.00  0.00    -0.021 A 
HETATM   20  C   UNK     0      -6.771  -2.704  -4.571  0.00  0.00     0.072 A 
HETATM   21  C   UNK     0      -7.464  -2.422  -3.394  0.00  0.00     0.037 A 
HETATM   22  C   UNK     0      -7.255  -3.202  -2.257  0.00  0.00     0.003 A 
HETATM   23  C   UNK     0      -6.352  -4.265  -2.297  0.00  0.00     0.001 A 
HETATM   24  C   UNK     0      -5.658  -4.546  -3.474  0.00  0.00     0.010 A 
BRANCH  20  25
HETATM   25  O   UNK     0      -6.987  -1.932  -5.672  0.00  0.00    -0.360 OA
HETATM   26  H   UNK     0      -7.315  -1.061  -5.390  0.00  0.00     0.217 HD
ENDBRANCH  20  25
ENDBRANCH  18  19
ENDBRANCH   7  18
BRANCH   9  27
HETATM   27  O   UNK     0       0.216  -2.203  -5.869  0.00  0.00    -0.360 OA
HETATM   28  H   UNK     0       0.484  -1.939  -6.767  0.00  0.00     0.217 HD
ENDBRANCH   9  27
BRANCH  10  29
HETATM   29  O   UNK     0      -2.972  -5.490  -4.651  0.00  0.00    -0.360 OA
HETATM   30  H   UNK     0      -3.155  -5.333  -3.708  0.00  0.00     0.217 HD
ENDBRANCH  10  29
TORSDOF 6
ENDMDL
