REMARK VINA RESULT:      -7.9      0.000      0.000
REMARK  6 active torsions:
REMARK  status: ('A' for Active; 'I' for Inactive)
REMARK    1  A    between atoms: O_3  and  C_14 
REMARK    2  A    between atoms: O_4  and  C_15 
REMARK    3  A    between atoms: O_5  and  C_20 
REMARK    4  A    between atoms: C_6  and  C_12 
REMARK    5  A    between atoms: C_10  and  C_13 
REMARK    6  A    between atoms: C_13  and  C_17 
ROOT
HETATM    1  O   UNK     0      -1.933  -3.958  -8.478  0.00  0.00    -0.339 OA
HETATM    2  O   UNK     0       0.212  -0.838 -10.056  0.00  0.00    -0.292 OA
HETATM    3  C   UNK     0      -2.153  -3.525  -9.830  0.00  0.00     0.169 C 
HETATM    4  C   UNK     0      -0.877  -2.942 -10.433  0.00  0.00     0.121 C 
HETATM    5  C   UNK     0      -1.450  -2.962  -7.670  0.00  0.00     0.095 A 
HETATM    6  C   UNK     0      -0.731  -1.862  -8.149  0.00  0.00     0.077 A 
HETATM    7  C   UNK     0      -1.681  -3.096  -6.301  0.00  0.00     0.014 A 
HETATM    8  C   UNK     0      -0.424  -1.776  -9.592  0.00  0.00     0.167 C 
HETATM    9  C   UNK     0      -0.272  -0.881  -7.267  0.00  0.00     0.085 A 
HETATM   10  C   UNK     0      -1.223  -2.118  -5.418  0.00  0.00     0.077 A 
HETATM   11  C   UNK     0      -0.524  -1.010  -5.901  0.00  0.00     0.074 A 
ENDROOT
BRANCH   3  12
HETATM   12  C   UNK     0      -2.647  -4.708 -10.637  0.00  0.00    -0.029 A 
HETATM   13  C   UNK     0      -4.017  -4.933 -10.775  0.00  0.00     0.010 A 
HETATM   14  C   UNK     0      -4.472  -6.023 -11.518  0.00  0.00     0.001 A 
HETATM   15  C   UNK     0      -3.558  -6.885 -12.123  0.00  0.00     0.000 A 
HETATM   16  C   UNK     0      -2.188  -6.659 -11.984  0.00  0.00     0.001 A 
HETATM   17  C   UNK     0      -1.733  -5.571 -11.240  0.00  0.00     0.010 A 
ENDBRANCH   3  12
BRANCH   7  18
HETATM   18  C   UNK     0      -2.430  -4.277  -5.771  0.00  0.00     0.085 C 
BRANCH  18  19
HETATM   19  C   UNK     0      -3.757  -3.925  -5.136  0.00  0.00    -0.021 A 
HETATM   20  C   UNK     0      -3.987  -4.217  -3.803  0.00  0.00     0.072 A 
HETATM   21  C   UNK     0      -5.217  -3.886  -3.233  0.00  0.00     0.037 A 
HETATM   22  C   UNK     0      -6.199  -3.267  -4.006  0.00  0.00     0.003 A 
HETATM   23  C   UNK     0      -5.951  -2.980  -5.348  0.00  0.00     0.001 A 
HETATM   24  C   UNK     0      -4.722  -3.311  -5.918  0.00  0.00     0.010 A 
BRANCH  20  25
HETATM   25  O   UNK     0      -3.039  -4.822  -3.034  0.00  0.00    -0.360 OA
HETATM   26  H   UNK     0      -2.646  -4.162  -2.437  0.00  0.00     0.217 HD
ENDBRANCH  20  25
ENDBRANCH  18  19
ENDBRANCH   7  18
BRANCH   9  27
HETATM   27  O   UNK     0       0.429   0.212  -7.682  0.00  0.00    -0.360 OA
HETATM   28  H   UNK     0       0.245   0.378  -8.623  0.00  0.00     0.217 HD
ENDBRANCH   9  27
BRANCH  10  29
HETATM   29  O   UNK     0      -1.447  -2.226  -4.078  0.00  0.00    -0.360 OA
HETATM   30  H   UNK     0      -1.807  -3.109  -3.885  0.00  0.00     0.217 HD
ENDBRANCH  10  29
TORSDOF 6
