REMARK VINA RESULT:      -6.8      2.449      9.500
REMARK  4 active torsions:
REMARK  status: ('A' for Active; 'I' for Inactive)
REMARK    1  A    between atoms: N_3  and  C_15 
REMARK    2  A    between atoms: N_5  and  C_13 
REMARK    3  A    between atoms: N_5  and  C_23 
REMARK    4  A    between atoms: N_6  and  C_17 
ROOT
HETATM    1 Cl   UNK     0     -16.720   0.727   1.697  0.00  0.00    -0.084 Cl
HETATM    2  C   UNK     0     -13.777  -2.555   2.663  0.00  0.00     0.040 A 
HETATM    3  C   UNK     0     -15.148  -2.787   2.783  0.00  0.00     0.031 A 
HETATM    4  C   UNK     0     -13.318  -1.305   2.243  0.00  0.00     0.031 A 
HETATM    5  C   UNK     0     -16.057  -1.773   2.485  0.00  0.00     0.026 A 
HETATM    6  C   UNK     0     -14.228  -0.290   1.945  0.00  0.00     0.026 A 
HETATM    7  C   UNK     0     -15.597  -0.524   2.065  0.00  0.00     0.034 A 
ENDROOT
BRANCH   2   8
HETATM    8  N   UNK     0     -12.858  -3.579   2.964  0.00  0.00    -0.307 N 
HETATM    9  C   UNK     0     -12.431  -3.753   4.294  0.00  0.00     0.071 A 
HETATM   10  C   UNK     0     -11.453  -4.863   4.530  0.00  0.00     0.087 A 
HETATM   11  C   UNK     0     -12.814  -3.032   5.364  0.00  0.00     0.066 A 
HETATM   12  N   UNK     0     -10.995  -5.648   3.604  0.00  0.00    -0.244 NA
HETATM   13  C   UNK     0     -10.971  -5.088   5.914  0.00  0.00     0.066 A 
HETATM   14  C   UNK     0     -11.432  -5.460   2.285  0.00  0.00     0.084 A 
HETATM   15  C   UNK     0     -12.349  -4.448   1.940  0.00  0.00     0.069 A 
HETATM   16  C   UNK     0     -10.926  -6.317   1.297  0.00  0.00     0.034 A 
HETATM   17  C   UNK     0     -12.730  -4.326   0.589  0.00  0.00     0.032 A 
HETATM   18  C   UNK     0     -12.219  -5.187  -0.386  0.00  0.00     0.002 A 
HETATM   19  C   UNK     0     -11.317  -6.182  -0.032  0.00  0.00     0.002 A 
HETATM   20  C   UNK     0     -11.362  -4.361   6.965  0.00  0.00     0.063 A 
HETATM   21  C   UNK     0     -12.335  -3.259   6.749  0.00  0.00     0.080 A 
HETATM   22  N   UNK     0     -12.747  -2.524   7.736  0.00  0.00    -0.283 NA
BRANCH  20  23
HETATM   23  N   UNK     0     -10.928  -4.557   8.244  0.00  0.00    -0.354 N 
HETATM   24  H   UNK     0     -10.467  -3.767   8.682  0.00  0.00     0.166 HD
BRANCH  23  25
HETATM   25  C   UNK     0     -10.978  -5.729   9.008  0.00  0.00     0.032 A 
HETATM   26  C   UNK     0     -12.194  -6.399   9.198  0.00  0.00     0.031 A 
HETATM   27  C   UNK     0     -12.245  -7.566   9.960  0.00  0.00     0.026 A 
HETATM   28  C   UNK     0     -11.080  -8.073  10.537  0.00  0.00     0.034 A 
HETATM   29 Cl   UNK     0     -11.142  -9.515  11.475  0.00  0.00    -0.084 Cl
HETATM   30  C   UNK     0      -9.865  -7.413  10.352  0.00  0.00     0.026 A 
HETATM   31  C   UNK     0      -9.814  -6.245   9.591  0.00  0.00     0.031 A 
ENDBRANCH  23  25
ENDBRANCH  20  23
BRANCH  22  32
HETATM   32  C   UNK     0     -13.695  -1.491   7.352  0.00  0.00     0.100 C 
HETATM   33  C   UNK     0     -15.013  -2.149   6.969  0.00  0.00     0.034 C 
HETATM   34  C   UNK     0     -13.865  -0.522   8.512  0.00  0.00     0.034 C 
ENDBRANCH  22  32
ENDBRANCH   2   8
TORSDOF 4
