REMARK VINA RESULT:      -6.6      0.000      0.000
REMARK  0 active torsions:
REMARK  status: ('A' for Active; 'I' for Inactive)
ROOT
HETATM    1  O   UNK     0      -8.288  -1.449  -5.001  0.00  0.00    -0.323 OA
HETATM    2  O   UNK     0      -8.370  -2.342  -2.766  0.00  0.00    -0.323 OA
HETATM    3  N   UNK     0      -3.024  -4.929  -4.075  0.00  0.00    -0.259 NA
HETATM    4  C   UNK     0      -5.069  -3.293  -5.110  0.00  0.00    -0.009 A 
HETATM    5  C   UNK     0      -5.148  -3.804  -3.786  0.00  0.00    -0.005 A 
HETATM    6  C   UNK     0      -3.925  -3.629  -5.905  0.00  0.00     0.004 A 
HETATM    7  C   UNK     0      -7.200  -2.212  -4.706  0.00  0.00     0.105 A 
HETATM    8  C   UNK     0      -6.141  -2.476  -5.555  0.00  0.00     0.053 A 
HETATM    9  C   UNK     0      -7.248  -2.719  -3.435  0.00  0.00     0.105 A 
HETATM   10  C   UNK     0      -6.240  -3.517  -2.944  0.00  0.00     0.053 A 
HETATM   11  C   UNK     0      -2.933  -4.456  -5.326  0.00  0.00     0.067 A 
HETATM   12  C   UNK     0      -4.107  -4.602  -3.341  0.00  0.00     0.129 A 
HETATM   13  C   UNK     0      -3.722  -3.188  -7.237  0.00  0.00     0.014 A 
HETATM   14  C   UNK     0      -9.027  -1.536  -3.765  0.00  0.00     0.352 A 
HETATM   15  C   UNK     0      -1.810  -4.801  -6.073  0.00  0.00     0.032 A 
HETATM   16  C   UNK     0      -2.588  -3.547  -7.965  0.00  0.00     0.001 A 
HETATM   17  C   UNK     0      -1.629  -4.356  -7.381  0.00  0.00     0.002 A 
ENDROOT
TORSDOF 0
