MODEL 1
REMARK VINA RESULT:      -6.6      0.000      0.000
REMARK  0 active torsions:
REMARK  status: ('A' for Active; 'I' for Inactive)
ROOT
HETATM    1  O   UNK     0      -8.288  -1.449  -5.001  0.00  0.00    -0.323 OA
HETATM    2  O   UNK     0      -8.370  -2.342  -2.766  0.00  0.00    -0.323 OA
HETATM    3  N   UNK     0      -3.024  -4.929  -4.075  0.00  0.00    -0.259 NA
HETATM    4  C   UNK     0      -5.069  -3.293  -5.110  0.00  0.00    -0.009 A 
HETATM    5  C   UNK     0      -5.148  -3.804  -3.786  0.00  0.00    -0.005 A 
HETATM    6  C   UNK     0      -3.925  -3.629  -5.905  0.00  0.00     0.004 A 
HETATM    7  C   UNK     0      -7.200  -2.212  -4.706  0.00  0.00     0.105 A 
HETATM    8  C   UNK     0      -6.141  -2.476  -5.555  0.00  0.00     0.053 A 
HETATM    9  C   UNK     0      -7.248  -2.719  -3.435  0.00  0.00     0.105 A 
HETATM   10  C   UNK     0      -6.240  -3.517  -2.944  0.00  0.00     0.053 A 
HETATM   11  C   UNK     0      -2.933  -4.456  -5.326  0.00  0.00     0.067 A 
HETATM   12  C   UNK     0      -4.107  -4.602  -3.341  0.00  0.00     0.129 A 
HETATM   13  C   UNK     0      -3.722  -3.188  -7.237  0.00  0.00     0.014 A 
HETATM   14  C   UNK     0      -9.027  -1.536  -3.765  0.00  0.00     0.352 A 
HETATM   15  C   UNK     0      -1.810  -4.801  -6.073  0.00  0.00     0.032 A 
HETATM   16  C   UNK     0      -2.588  -3.547  -7.965  0.00  0.00     0.001 A 
HETATM   17  C   UNK     0      -1.629  -4.356  -7.381  0.00  0.00     0.002 A 
ENDROOT
TORSDOF 0
ENDMDL
MODEL 2
REMARK VINA RESULT:      -6.6      1.804      2.937
REMARK  0 active torsions:
REMARK  status: ('A' for Active; 'I' for Inactive)
ROOT
HETATM    1  O   UNK     0      -7.181  -5.196  -1.170  0.00  0.00    -0.323 OA
HETATM    2  O   UNK     0      -8.928  -3.758  -1.993  0.00  0.00    -0.323 OA
HETATM    3  N   UNK     0      -4.951  -2.126  -6.296  0.00  0.00    -0.259 NA
HETATM    4  C   UNK     0      -5.304  -3.765  -4.033  0.00  0.00    -0.009 A 
HETATM    5  C   UNK     0      -6.355  -2.927  -4.494  0.00  0.00    -0.005 A 
HETATM    6  C   UNK     0      -4.060  -3.756  -4.747  0.00  0.00     0.004 A 
HETATM    7  C   UNK     0      -6.798  -4.493  -2.271  0.00  0.00     0.105 A 
HETATM    8  C   UNK     0      -5.563  -4.560  -2.886  0.00  0.00     0.053 A 
HETATM    9  C   UNK     0      -7.792  -3.676  -2.738  0.00  0.00     0.105 A 
HETATM   10  C   UNK     0      -7.604  -2.881  -3.845  0.00  0.00     0.053 A 
HETATM   11  C   UNK     0      -3.948  -2.910  -5.876  0.00  0.00     0.067 A 
HETATM   12  C   UNK     0      -6.114  -2.147  -5.613  0.00  0.00     0.129 A 
HETATM   13  C   UNK     0      -2.934  -4.541  -4.396  0.00  0.00     0.014 A 
HETATM   14  C   UNK     0      -8.533  -4.725  -0.999  0.00  0.00     0.352 A 
HETATM   15  C   UNK     0      -2.754  -2.879  -6.590  0.00  0.00     0.032 A 
HETATM   16  C   UNK     0      -1.747  -4.493  -5.127  0.00  0.00     0.001 A 
HETATM   17  C   UNK     0      -1.658  -3.659  -6.228  0.00  0.00     0.002 A 
ENDROOT
TORSDOF 0
ENDMDL
MODEL 3
REMARK VINA RESULT:      -6.4      2.736      5.386
REMARK  0 active torsions:
REMARK  status: ('A' for Active; 'I' for Inactive)
ROOT
HETATM    1  O   UNK     0      -2.688  -3.055  -6.416  0.00  0.00    -0.323 OA
HETATM    2  O   UNK     0      -1.836  -4.358  -4.579  0.00  0.00    -0.323 OA
HETATM    3  N   UNK     0      -7.518  -4.212  -2.415  0.00  0.00    -0.259 NA
HETATM    4  C   UNK     0      -5.874  -3.366  -4.540  0.00  0.00    -0.009 A 
HETATM    5  C   UNK     0      -5.340  -4.134  -3.470  0.00  0.00    -0.005 A 
HETATM    6  C   UNK     0      -7.269  -3.032  -4.512  0.00  0.00     0.004 A 
HETATM    7  C   UNK     0      -3.651  -3.355  -5.502  0.00  0.00     0.105 A 
HETATM    8  C   UNK     0      -4.979  -2.980  -5.571  0.00  0.00     0.053 A 
HETATM    9  C   UNK     0      -3.166  -4.096  -4.458  0.00  0.00     0.105 A 
HETATM   10  C   UNK     0      -3.982  -4.501  -3.427  0.00  0.00     0.053 A 
HETATM   11  C   UNK     0      -8.039  -3.488  -3.416  0.00  0.00     0.067 A 
HETATM   12  C   UNK     0      -6.205  -4.517  -2.458  0.00  0.00     0.129 A 
HETATM   13  C   UNK     0      -7.927  -2.274  -5.512  0.00  0.00     0.014 A 
HETATM   14  C   UNK     0      -1.539  -3.694  -5.825  0.00  0.00     0.352 A 
HETATM   15  C   UNK     0      -9.396  -3.180  -3.360  0.00  0.00     0.032 A 
HETATM   16  C   UNK     0      -9.288  -1.978  -5.434  0.00  0.00     0.001 A 
HETATM   17  C   UNK     0     -10.024  -2.433  -4.354  0.00  0.00     0.002 A 
ENDROOT
TORSDOF 0
ENDMDL
MODEL 4
REMARK VINA RESULT:      -6.3      2.267      3.628
REMARK  0 active torsions:
REMARK  status: ('A' for Active; 'I' for Inactive)
ROOT
HETATM    1  O   UNK     0      -7.905  -5.643  -0.340  0.00  0.00    -0.323 OA
HETATM    2  O   UNK     0      -9.770  -4.233  -0.918  0.00  0.00    -0.323 OA
HETATM    3  N   UNK     0      -6.273  -2.222  -5.470  0.00  0.00    -0.259 NA
HETATM    4  C   UNK     0      -6.355  -3.991  -3.279  0.00  0.00    -0.009 A 
HETATM    5  C   UNK     0      -7.474  -3.171  -3.593  0.00  0.00    -0.005 A 
HETATM    6  C   UNK     0      -5.185  -3.895  -4.102  0.00  0.00     0.004 A 
HETATM    7  C   UNK     0      -7.652  -4.869  -1.431  0.00  0.00     0.105 A 
HETATM    8  C   UNK     0      -6.478  -4.854  -2.159  0.00  0.00     0.053 A 
HETATM    9  C   UNK     0      -8.713  -4.068  -1.758  0.00  0.00     0.105 A 
HETATM   10  C   UNK     0      -8.657  -3.209  -2.832  0.00  0.00     0.053 A 
HETATM   11  C   UNK     0      -5.209  -2.987  -5.188  0.00  0.00     0.067 A 
HETATM   12  C   UNK     0      -7.365  -2.324  -4.685  0.00  0.00     0.129 A 
HETATM   13  C   UNK     0      -4.004  -4.653  -3.900  0.00  0.00     0.014 A 
HETATM   14  C   UNK     0      -9.251  -5.235  -0.020  0.00  0.00     0.352 A 
HETATM   15  C   UNK     0      -4.088  -2.872  -6.006  0.00  0.00     0.032 A 
HETATM   16  C   UNK     0      -2.894  -4.520  -4.734  0.00  0.00     0.001 A 
HETATM   17  C   UNK     0      -2.937  -3.626  -5.789  0.00  0.00     0.002 A 
ENDROOT
TORSDOF 0
ENDMDL
MODEL 5
REMARK VINA RESULT:      -6.2      4.606      6.796
REMARK  0 active torsions:
REMARK  status: ('A' for Active; 'I' for Inactive)
ROOT
HETATM    1  O   UNK     0      -1.621  -4.069  -6.439  0.00  0.00    -0.323 OA
HETATM    2  O   UNK     0      -3.072  -2.177  -6.778  0.00  0.00    -0.323 OA
HETATM    3  N   UNK     0      -3.468  -4.073 -12.544  0.00  0.00    -0.259 NA
HETATM    4  C   UNK     0      -2.306  -4.639 -10.041  0.00  0.00    -0.009 A 
HETATM    5  C   UNK     0      -3.159  -3.514 -10.208  0.00  0.00    -0.005 A 
HETATM    6  C   UNK     0      -2.052  -5.478 -11.176  0.00  0.00     0.004 A 
HETATM    7  C   UNK     0      -2.071  -3.983  -7.721  0.00  0.00     0.105 A 
HETATM    8  C   UNK     0      -1.761  -4.854  -8.748  0.00  0.00     0.053 A 
HETATM    9  C   UNK     0      -2.895  -2.907  -7.913  0.00  0.00     0.105 A 
HETATM   10  C   UNK     0      -3.455  -2.644  -9.142  0.00  0.00     0.053 A 
HETATM   11  C   UNK     0      -2.667  -5.138 -12.405  0.00  0.00     0.067 A 
HETATM   12  C   UNK     0      -3.696  -3.294 -11.466  0.00  0.00     0.129 A 
HETATM   13  C   UNK     0      -1.224  -6.628 -11.147  0.00  0.00     0.014 A 
HETATM   14  C   UNK     0      -2.260  -2.920  -5.846  0.00  0.00     0.352 A 
HETATM   15  C   UNK     0      -2.440  -5.933 -13.525  0.00  0.00     0.032 A 
HETATM   16  C   UNK     0      -1.011  -7.409 -12.283  0.00  0.00     0.001 A 
HETATM   17  C   UNK     0      -1.621  -7.060 -13.475  0.00  0.00     0.002 A 
ENDROOT
TORSDOF 0
ENDMDL
MODEL 6
REMARK VINA RESULT:      -6.1      5.356      7.680
REMARK  0 active torsions:
REMARK  status: ('A' for Active; 'I' for Inactive)
ROOT
HETATM    1  O   UNK     0      -2.033  -6.433 -11.775  0.00  0.00    -0.323 OA
HETATM    2  O   UNK     0      -1.150  -4.707 -13.204  0.00  0.00    -0.323 OA
HETATM    3  N   UNK     0      -0.621  -1.392  -8.131  0.00  0.00    -0.259 NA
HETATM    4  C   UNK     0      -1.441  -3.892  -9.136  0.00  0.00    -0.009 A 
HETATM    5  C   UNK     0      -0.925  -2.894 -10.006  0.00  0.00    -0.005 A 
HETATM    6  C   UNK     0      -1.535  -3.596  -7.736  0.00  0.00     0.004 A 
HETATM    7  C   UNK     0      -1.700  -5.308 -11.085  0.00  0.00     0.105 A 
HETATM    8  C   UNK     0      -1.832  -5.125  -9.721  0.00  0.00     0.053 A 
HETATM    9  C   UNK     0      -1.198  -4.327 -11.898  0.00  0.00     0.105 A 
HETATM   10  C   UNK     0      -0.802  -3.111 -11.392  0.00  0.00     0.053 A 
HETATM   11  C   UNK     0      -1.106  -2.321  -7.296  0.00  0.00     0.067 A 
HETATM   12  C   UNK     0      -0.540  -1.687  -9.445  0.00  0.00     0.129 A 
HETATM   13  C   UNK     0      -2.031  -4.499  -6.762  0.00  0.00     0.014 A 
HETATM   14  C   UNK     0      -1.682  -6.044 -13.119  0.00  0.00     0.352 A 
HETATM   15  C   UNK     0      -1.185  -2.004  -5.943  0.00  0.00     0.032 A 
HETATM   16  C   UNK     0      -2.100  -4.158  -5.411  0.00  0.00     0.001 A 
HETATM   17  C   UNK     0      -1.676  -2.906  -5.001  0.00  0.00     0.002 A 
ENDROOT
TORSDOF 0
ENDMDL
MODEL 7
REMARK VINA RESULT:      -6.0      2.659      5.319
REMARK  0 active torsions:
REMARK  status: ('A' for Active; 'I' for Inactive)
ROOT
HETATM    1  O   UNK     0      -3.139  -2.088  -8.930  0.00  0.00    -0.323 OA
HETATM    2  O   UNK     0      -1.228  -3.444  -8.375  0.00  0.00    -0.323 OA
HETATM    3  N   UNK     0      -4.206  -4.757  -3.237  0.00  0.00    -0.259 NA
HETATM    4  C   UNK     0      -4.360  -3.300  -5.643  0.00  0.00    -0.009 A 
HETATM    5  C   UNK     0      -3.217  -4.091  -5.344  0.00  0.00    -0.005 A 
HETATM    6  C   UNK     0      -5.431  -3.261  -4.690  0.00  0.00     0.004 A 
HETATM    7  C   UNK     0      -3.272  -2.704  -7.723  0.00  0.00     0.105 A 
HETATM    8  C   UNK     0      -4.358  -2.597  -6.876  0.00  0.00     0.053 A 
HETATM    9  C   UNK     0      -2.185  -3.474  -7.409  0.00  0.00     0.105 A 
HETATM   10  C   UNK     0      -2.126  -4.180  -6.229  0.00  0.00     0.053 A 
HETATM   11  C   UNK     0      -5.291  -4.016  -3.501  0.00  0.00     0.067 A 
HETATM   12  C   UNK     0      -3.208  -4.782  -4.143  0.00  0.00     0.129 A 
HETATM   13  C   UNK     0      -6.624  -2.514  -4.863  0.00  0.00     0.014 A 
HETATM   14  C   UNK     0      -1.839  -2.562  -9.338  0.00  0.00     0.352 A 
HETATM   15  C   UNK     0      -6.314  -3.998  -2.557  0.00  0.00     0.032 A 
HETATM   16  C   UNK     0      -7.635  -2.513  -3.903  0.00  0.00     0.001 A 
HETATM   17  C   UNK     0      -7.479  -3.257  -2.746  0.00  0.00     0.002 A 
ENDROOT
TORSDOF 0
ENDMDL
MODEL 8
REMARK VINA RESULT:      -6.0      3.007      4.443
REMARK  0 active torsions:
REMARK  status: ('A' for Active; 'I' for Inactive)
ROOT
HETATM    1  O   UNK     0     -10.495  -4.476  -0.604  0.00  0.00    -0.323 OA
HETATM    2  O   UNK     0      -8.830  -6.020   0.198  0.00  0.00    -0.323 OA
HETATM    3  N   UNK     0      -5.266  -3.772  -4.188  0.00  0.00    -0.259 NA
HETATM    4  C   UNK     0      -7.822  -3.586  -3.019  0.00  0.00    -0.009 A 
HETATM    5  C   UNK     0      -6.862  -4.508  -2.522  0.00  0.00    -0.005 A 
HETATM    6  C   UNK     0      -7.459  -2.753  -4.129  0.00  0.00     0.004 A 
HETATM    7  C   UNK     0      -9.334  -4.401  -1.311  0.00  0.00     0.105 A 
HETATM    8  C   UNK     0      -9.086  -3.554  -2.375  0.00  0.00     0.053 A 
HETATM    9  C   UNK     0      -8.388  -5.279  -0.854  0.00  0.00     0.105 A 
HETATM   10  C   UNK     0      -7.144  -5.358  -1.436  0.00  0.00     0.053 A 
HETATM   11  C   UNK     0      -6.159  -2.897  -4.670  0.00  0.00     0.067 A 
HETATM   12  C   UNK     0      -5.624  -4.547  -3.144  0.00  0.00     0.129 A 
HETATM   13  C   UNK     0      -8.319  -1.795  -4.721  0.00  0.00     0.014 A 
HETATM   14  C   UNK     0     -10.168  -5.505   0.352  0.00  0.00     0.352 A 
HETATM   15  C   UNK     0      -5.777  -2.103  -5.748  0.00  0.00     0.032 A 
HETATM   16  C   UNK     0      -7.913  -1.011  -5.801  0.00  0.00     0.001 A 
HETATM   17  C   UNK     0      -6.638  -1.166  -6.316  0.00  0.00     0.002 A 
ENDROOT
TORSDOF 0
ENDMDL
MODEL 9
REMARK VINA RESULT:      -5.8      1.947      3.008
REMARK  0 active torsions:
REMARK  status: ('A' for Active; 'I' for Inactive)
ROOT
HETATM    1  O   UNK     0     -10.925  -1.960  -2.684  0.00  0.00    -0.323 OA
HETATM    2  O   UNK     0     -10.561  -3.627  -0.984  0.00  0.00    -0.323 OA
HETATM    3  N   UNK     0      -5.099  -4.406  -3.545  0.00  0.00    -0.259 NA
HETATM    4  C   UNK     0      -7.500  -2.944  -3.716  0.00  0.00    -0.009 A 
HETATM    5  C   UNK     0      -7.316  -3.921  -2.701  0.00  0.00    -0.005 A 
HETATM    6  C   UNK     0      -6.435  -2.720  -4.650  0.00  0.00     0.004 A 
HETATM    7  C   UNK     0      -9.700  -2.544  -2.784  0.00  0.00     0.105 A 
HETATM    8  C   UNK     0      -8.739  -2.251  -3.733  0.00  0.00     0.053 A 
HETATM    9  C   UNK     0      -9.494  -3.491  -1.818  0.00  0.00     0.105 A 
HETATM   10  C   UNK     0      -8.315  -4.197  -1.748  0.00  0.00     0.053 A 
HETATM   11  C   UNK     0      -5.255  -3.488  -4.509  0.00  0.00     0.067 A 
HETATM   12  C   UNK     0      -6.110  -4.604  -2.675  0.00  0.00     0.129 A 
HETATM   13  C   UNK     0      -6.488  -1.778  -5.708  0.00  0.00     0.014 A 
HETATM   14  C   UNK     0     -11.466  -2.652  -1.539  0.00  0.00     0.352 A 
HETATM   15  C   UNK     0      -4.203  -3.294  -5.400  0.00  0.00     0.032 A 
HETATM   16  C   UNK     0      -5.421  -1.601  -6.588  0.00  0.00     0.001 A 
HETATM   17  C   UNK     0      -4.275  -2.362  -6.434  0.00  0.00     0.002 A 
ENDROOT
TORSDOF 0
ENDMDL
