REMARK  15 active torsions:
REMARK  status: ('A' for Active; 'I' for Inactive)
REMARK    1  A    between atoms: O_2  and  C_14 
REMARK    2  A    between atoms: O_2  and  C_19 
REMARK    3  A    between atoms: O_4  and  C_15 
REMARK    4  A    between atoms: O_5  and  C_16 
REMARK    5  A    between atoms: O_6  and  C_17 
REMARK    6  A    between atoms: O_7  and  C_20 
REMARK    7  A    between atoms: O_8  and  C_21 
REMARK    8  A    between atoms: O_9  and  C_22 
REMARK    9  A    between atoms: O_10  and  C_24 
REMARK   10  A    between atoms: O_10  and  C_26 
REMARK   11  A    between atoms: O_12  and  C_32 
REMARK   12  A    between atoms: O_13  and  C_34 
REMARK   13  A    between atoms: C_18  and  C_23 
REMARK   14  A    between atoms: C_26  and  C_27 
REMARK   15  A    between atoms: C_28  and  C_29 
ROOT
HETATM    1  O   UNK     0       4.826  -0.777   0.032  0.00  0.00    -0.351 OA
HETATM    2  C   UNK     0       4.639   0.629   0.172  0.00  0.00     0.292 C 
HETATM    3  C   UNK     0       5.918   1.375  -0.202  0.00  0.00     0.204 C 
HETATM    4  C   UNK     0       7.117   0.860   0.593  0.00  0.00     0.183 C 
HETATM    5  C   UNK     0       7.194  -0.667   0.551  0.00  0.00     0.178 C 
HETATM    6  C   UNK     0       5.838  -1.286   0.902  0.00  0.00     0.155 C 
ENDROOT
BRANCH   2   7
HETATM    7  O   UNK     0       3.601   1.068  -0.704  0.00  0.00    -0.346 OA
BRANCH   7   8
HETATM    8  C   UNK     0       2.365   0.416  -0.414  0.00  0.00     0.211 C 
HETATM    9  C   UNK     0       1.899  -0.366  -1.645  0.00  0.00     0.185 C 
HETATM   10  C   UNK     0       0.463  -0.855  -1.469  0.00  0.00     0.205 C 
HETATM   11  C   UNK     0      -0.439   0.319  -1.089  0.00  0.00     0.304 C 
HETATM   12  O   UNK     0       0.036   0.921   0.116  0.00  0.00    -0.326 OA
HETATM   13  C   UNK     0       1.339   1.486  -0.027  0.00  0.00     0.291 C 
BRANCH   9  14
HETATM   14  O   UNK     0       2.747  -1.488  -1.871  0.00  0.00    -0.390 OA
HETATM   15  H   UNK     0       2.418  -1.950  -2.661  0.00  0.00     0.210 HD
ENDBRANCH   9  14
BRANCH  10  16
HETATM   16  O   UNK     0       0.429  -1.826  -0.418  0.00  0.00    -0.388 OA
HETATM   17  H   UNK     0       0.520  -1.362   0.431  0.00  0.00     0.210 HD
ENDBRANCH  10  16
BRANCH  11  18
HETATM   18  O   UNK     0      -1.768  -0.165  -0.919  0.00  0.00    -0.283 OA
BRANCH  18  19
HETATM   19  C   UNK     0      -2.700   0.771  -0.582  0.00  0.00     0.285 C 
HETATM   20  O   UNK     0      -2.507   1.964  -0.414  0.00  0.00    -0.260 OA
BRANCH  19  21
HETATM   21  C   UNK     0      -4.006   0.084  -0.451  0.00  0.00     0.083 C 
HETATM   22  C   UNK     0      -5.095   0.794  -0.124  0.00  0.00     0.017 C 
BRANCH  22  23
HETATM   23  C   UNK     0      -6.445   0.227   0.045  0.00  0.00    -0.033 A 
HETATM   24  C   UNK     0      -7.410   0.925   0.770  0.00  0.00     0.050 A 
HETATM   25  C   UNK     0      -8.688   0.388   0.927  0.00  0.00     0.099 A 
HETATM   26  C   UNK     0      -9.000  -0.847   0.358  0.00  0.00     0.098 A 
HETATM   27  C   UNK     0      -8.035  -1.545  -0.367  0.00  0.00     0.040 A 
HETATM   28  C   UNK     0      -6.757  -1.008  -0.524  0.00  0.00     0.014 A 
BRANCH  25  29
HETATM   29  O   UNK     0      -9.622   1.079   1.638  0.00  0.00    -0.358 OA
HETATM   30  H   UNK     0      -9.229   1.909   1.956  0.00  0.00     0.217 HD
ENDBRANCH  25  29
BRANCH  26  31
HETATM   31  O   UNK     0     -10.244  -1.382   0.506  0.00  0.00    -0.358 OA
HETATM   32  H   UNK     0     -10.277  -2.239   0.047  0.00  0.00     0.217 HD
ENDBRANCH  26  31
ENDBRANCH  22  23
ENDBRANCH  19  21
ENDBRANCH  18  19
ENDBRANCH  11  18
BRANCH  13  33
HETATM   33  O   UNK     0       1.754   2.062   1.212  0.00  0.00    -0.368 OA
HETATM   34  H   UNK     0       1.372   2.955   1.254  0.00  0.00     0.212 HD
ENDBRANCH  13  33
ENDBRANCH   7   8
ENDBRANCH   2   7
BRANCH   6  35
HETATM   35  C   UNK     0       5.854  -2.804   0.751  0.00  0.00     0.030 C 
HETATM   36  C   UNK     0       4.498  -3.407   1.068  0.00  0.00     0.007 C 
ENDBRANCH   6  35
BRANCH   3  37
HETATM   37  O   UNK     0       5.733   2.763   0.076  0.00  0.00    -0.388 OA
HETATM   38  H   UNK     0       5.555   2.859   1.027  0.00  0.00     0.210 HD
ENDBRANCH   3  37
BRANCH   5  39
HETATM   39  O   UNK     0       8.167  -1.121   1.488  0.00  0.00    -0.390 OA
HETATM   40  H   UNK     0       7.885  -0.841   2.375  0.00  0.00     0.210 HD
ENDBRANCH   5  39
BRANCH   4  41
HETATM   41  O   UNK     0       8.300   1.413   0.014  0.00  0.00    -0.390 OA
HETATM   42  H   UNK     0       8.366   1.094  -0.902  0.00  0.00     0.210 HD
ENDBRANCH   4  41
TORSDOF 15
