REMARK  7 active torsions:
REMARK  status: ('A' for Active; 'I' for Inactive)
REMARK    1  A    between atoms: O_1  and  C_12 
REMARK    2  A    between atoms: O_2  and  C_23 
REMARK    3  A    between atoms: O_2  and  C_37 
REMARK    4  A    between atoms: O_3  and  C_35 
REMARK    5  A    between atoms: O_6  and  C_43 
REMARK    6  A    between atoms: C_28  and  C_35 
REMARK    7  A    between atoms: C_37  and  C_38 
ROOT
HETATM    1  O   UNK     0       1.637  -3.370  -1.701  0.00  0.00    -0.395 OA
HETATM    2  H   UNK     0       1.506  -4.127  -1.106  0.00  0.00     0.210 HD
ENDROOT
BRANCH   1   3
HETATM    3  C   UNK     0       0.908  -2.257  -1.189  0.00  0.00     0.128 C 
HETATM    4  C   UNK     0       1.693  -1.553  -0.033  0.00  0.00    -0.002 C 
HETATM    5  C   UNK     0       0.749  -0.482   0.649  0.00  0.00     0.009 C 
HETATM    6  C   UNK     0       3.038  -0.760  -0.582  0.00  0.00    -0.010 C 
HETATM    7  C   UNK     0       2.121  -2.638   1.005  0.00  0.00     0.019 C 
HETATM    8  C   UNK     0      -0.763  -0.892   0.960  0.00  0.00    -0.035 C 
HETATM    9  C   UNK     0       1.463   0.193   1.840  0.00  0.00     0.033 C 
HETATM   10  C   UNK     0      -1.367  -1.571  -0.313  0.00  0.00     0.007 C 
HETATM   11  C   UNK     0      -1.568   0.425   1.251  0.00  0.00     0.012 C 
HETATM   12  C   UNK     0      -0.897  -1.797   2.210  0.00  0.00     0.016 C 
HETATM   13  C   UNK     0      -0.491  -2.740  -0.795  0.00  0.00     0.038 C 
HETATM   14  C   UNK     0      -2.910  -1.906  -0.251  0.00  0.00    -0.016 C 
HETATM   15  C   UNK     0      -3.661  -0.909   0.683  0.00  0.00     0.140 C 
HETATM   16  C   UNK     0      -3.210  -3.342   0.236  0.00  0.00     0.018 C 
HETATM   17  C   UNK     0      -3.474  -1.814  -1.697  0.00  0.00     0.018 C 
HETATM   18  C   UNK     0      -2.998   0.461   0.706  0.00  0.00     0.034 C 
HETATM   19  C   UNK     0       2.905   0.512   1.600  0.00  0.00    -0.022 C 
HETATM   20  C   UNK     0       3.641   0.122   0.541  0.00  0.00    -0.069 C 
HETATM   21  C   UNK     0       5.119   0.562   0.489  0.00  0.00     0.037 C 
HETATM   22  C   UNK     0       6.051  -0.600   0.043  0.00  0.00    -0.036 C 
HETATM   23  C   UNK     0       5.323   1.879  -0.319  0.00  0.00     0.096 C 
HETATM   24  C   UNK     0       5.519  -1.205  -1.275  0.00  0.00     0.011 C 
HETATM   25  C   UNK     0       7.507  -0.108  -0.144  0.00  0.00     0.010 C 
HETATM   26  C   UNK     0       6.106  -1.693   1.142  0.00  0.00     0.016 C 
HETATM   27  C   UNK     0       4.098  -1.762  -1.140  0.00  0.00     0.015 C 
HETATM   28  C   UNK     0       7.639   1.141  -1.001  0.00  0.00     0.006 C 
HETATM   29  C   UNK     0       6.805   2.290  -0.433  0.00  0.00    -0.004 C 
HETATM   30  C   UNK     0       6.987   3.531  -1.318  0.00  0.00     0.011 C 
HETATM   31  C   UNK     0       2.680   0.198  -1.760  0.00  0.00     0.021 C 
BRANCH  15  32
HETATM   32  O   UNK     0      -5.026  -0.766   0.289  0.00  0.00    -0.311 OA
BRANCH  32  33
HETATM   33  C   UNK     0      -5.789   0.079   1.052  0.00  0.00     0.293 C 
HETATM   34  O   UNK     0      -5.599   0.279   2.247  0.00  0.00    -0.259 OA
BRANCH  33  35
HETATM   35  C   UNK     0      -6.864   0.727   0.296  0.00  0.00     0.039 A 
HETATM   36  C   UNK     0      -7.720   1.612   0.941  0.00  0.00     0.020 A 
HETATM   37  C   UNK     0      -8.743   2.230   0.222  0.00  0.00     0.037 A 
HETATM   38  C   UNK     0      -8.903   1.958  -1.137  0.00  0.00     0.065 A 
HETATM   39  C   UNK     0      -8.040   1.068  -1.776  0.00  0.00     0.037 A 
HETATM   40  C   UNK     0      -7.016   0.450  -1.057  0.00  0.00     0.020 A 
BRANCH  38  41
HETATM   41  O   UNK     0      -9.900   2.561  -1.839  0.00  0.00    -0.361 OA
HETATM   42  H   UNK     0     -10.399   3.144  -1.241  0.00  0.00     0.217 HD
ENDBRANCH  38  41
ENDBRANCH  33  35
ENDBRANCH  32  33
ENDBRANCH  15  32
BRANCH  23  43
HETATM   43  C   UNK     0       4.565   2.994   0.351  0.00  0.00     0.144 C 
HETATM   44  O   UNK     0       4.763   3.393   1.489  0.00  0.00    -0.650 OA
BRANCH  43  45
HETATM   45  O   UNK     0       3.622   3.500  -0.481  0.00  0.00    -0.776 OA
HETATM   46  H   UNK     0       3.115   4.226  -0.061  0.00  0.00     0.167 HD
ENDBRANCH  43  45
ENDBRANCH  23  43
ENDBRANCH   1   3
TORSDOF 7
