REMARK  6 active torsions:
REMARK  status: ('A' for Active; 'I' for Inactive)
REMARK    1  A    between atoms: O_3  and  C_14 
REMARK    2  A    between atoms: O_4  and  C_15 
REMARK    3  A    between atoms: O_5  and  C_20 
REMARK    4  A    between atoms: C_6  and  C_12 
REMARK    5  A    between atoms: C_10  and  C_13 
REMARK    6  A    between atoms: C_13  and  C_17 
ROOT
HETATM    1  O   UNK     0      -0.239   0.543  -0.518  0.00  0.00    -0.339 OA
HETATM    2  O   UNK     0       1.476   3.989   0.902  0.00  0.00    -0.292 OA
HETATM    3  C   UNK     0      -0.958   1.406   0.378  0.00  0.00     0.169 C 
HETATM    4  C   UNK     0      -0.523   2.860   0.205  0.00  0.00     0.121 C 
HETATM    5  C   UNK     0       1.121   0.642  -0.378  0.00  0.00     0.095 A 
HETATM    6  C   UNK     0       1.764   1.780   0.120  0.00  0.00     0.077 A 
HETATM    7  C   UNK     0       1.876  -0.457  -0.788  0.00  0.00     0.014 A 
HETATM    8  C   UNK     0       0.956   2.966   0.473  0.00  0.00     0.167 C 
HETATM    9  C   UNK     0       3.155   1.809   0.239  0.00  0.00     0.085 A 
HETATM   10  C   UNK     0       3.266  -0.430  -0.671  0.00  0.00     0.077 A 
HETATM   11  C   UNK     0       3.904   0.699  -0.154  0.00  0.00     0.074 A 
ENDROOT
BRANCH   3  12
HETATM   12  C   UNK     0      -2.440   1.244   0.112  0.00  0.00    -0.029 A 
HETATM   13  C   UNK     0      -3.354   1.378   1.157  0.00  0.00     0.010 A 
HETATM   14  C   UNK     0      -4.719   1.229   0.912  0.00  0.00     0.001 A 
HETATM   15  C   UNK     0      -5.170   0.947  -0.377  0.00  0.00     0.000 A 
HETATM   16  C   UNK     0      -4.255   0.813  -1.422  0.00  0.00     0.001 A 
HETATM   17  C   UNK     0      -2.890   0.961  -1.177  0.00  0.00     0.010 A 
ENDBRANCH   3  12
BRANCH   7  18
HETATM   18  C   UNK     0       1.204  -1.673  -1.342  0.00  0.00     0.085 C 
BRANCH  18  19
HETATM   19  C   UNK     0       0.528  -2.529  -0.293  0.00  0.00    -0.021 A 
HETATM   20  C   UNK     0      -0.835  -2.762  -0.362  0.00  0.00     0.072 A 
HETATM   21  C   UNK     0      -1.442  -3.553   0.614  0.00  0.00     0.037 A 
HETATM   22  C   UNK     0      -0.677  -4.099   1.644  0.00  0.00     0.003 A 
HETATM   23  C   UNK     0       0.695  -3.854   1.699  0.00  0.00     0.001 A 
HETATM   24  C   UNK     0       1.302  -3.063   0.724  0.00  0.00     0.010 A 
BRANCH  20  25
HETATM   25  O   UNK     0      -1.597  -2.236  -1.361  0.00  0.00    -0.360 OA
HETATM   26  H   UNK     0      -2.523  -2.502  -1.228  0.00  0.00     0.217 HD
ENDBRANCH  20  25
ENDBRANCH  18  19
ENDBRANCH   7  18
BRANCH   9  27
HETATM   27  O   UNK     0       3.830   2.890   0.721  0.00  0.00    -0.360 OA
HETATM   28  H   UNK     0       4.785   2.704   0.720  0.00  0.00     0.217 HD
ENDBRANCH   9  27
BRANCH  10  29
HETATM   29  O   UNK     0       4.020  -1.498  -1.057  0.00  0.00    -0.360 OA
HETATM   30  H   UNK     0       4.959  -1.299  -0.900  0.00  0.00     0.217 HD
ENDBRANCH  10  29
TORSDOF 6
