REMARK  32 active torsions:
REMARK  status: ('A' for Active; 'I' for Inactive)
REMARK    1  A    between atoms: O_11  and  C_51 
REMARK    2  A    between atoms: O_12  and  C_52 
REMARK    3  A    between atoms: O_13  and  C_53 
REMARK    4  A    between atoms: O_14  and  C_54 
REMARK    5  A    between atoms: O_15  and  C_55 
REMARK    6  A    between atoms: O_16  and  C_56 
REMARK    7  A    between atoms: O_17  and  C_57 
REMARK    8  A    between atoms: O_18  and  C_58 
REMARK    9  A    between atoms: O_19  and  C_59 
REMARK   10  A    between atoms: O_20  and  C_62 
REMARK   11  A    between atoms: O_21  and  C_63 
REMARK   12  A    between atoms: O_22  and  C_64 
REMARK   13  A    between atoms: O_23  and  C_65 
REMARK   14  A    between atoms: O_24  and  C_66 
REMARK   15  A    between atoms: O_25  and  C_67 
REMARK   16  A    between atoms: C_30  and  C_32 
REMARK   17  A    between atoms: C_31  and  C_33 
REMARK   18  A    between atoms: C_33  and  C_37 
REMARK   19  A    between atoms: C_35  and  C_39 
REMARK   20  A    between atoms: C_41  and  C_44 
REMARK   21  A    between atoms: C_42  and  C_53 
REMARK   22  A    between atoms: C_45  and  C_62 
REMARK   23  A    between atoms: C_47  and  C_63 
REMARK   24  A    between atoms: C_51  and  C_52 
REMARK   25  A    between atoms: C_52  and  C_53 
REMARK   26  A    between atoms: C_56  and  C_57 
REMARK   27  A    between atoms: C_57  and  C_63 
REMARK   28  A    between atoms: C_58  and  C_59 
REMARK   29  A    between atoms: C_59  and  C_64 
REMARK   30  A    between atoms: C_60  and  C_67 
REMARK   31  A    between atoms: C_65  and  C_66 
REMARK   32  A    between atoms: C_66  and  C_67 
ROOT
HETATM    1  O   UNK     0       8.599  -1.000   0.000  0.00  0.00     0.000 OA
HETATM    2  O   UNK     0       8.599   2.000   0.000  0.00  0.00     0.000 OA
HETATM    3  O   UNK     0       6.867   1.000   0.000  0.00  0.00    -0.349 OA
HETATM    4  O   UNK     0      10.331   1.000   0.000  0.00  0.00     0.000 OA
HETATM    5  O   UNK     0      10.331   2.000   0.000  0.00  0.00    -0.224 OA
HETATM    6  O   UNK     0       6.001  -0.500   0.000  0.00  0.00    -0.413 OA
HETATM    7  O   UNK     0      11.197  -0.500   0.000  0.00  0.00    -0.304 OA
HETATM    8  C   UNK     0       8.599   1.000   0.000  0.00  0.00     0.018 A 
HETATM    9  C   UNK     0       7.733   0.500   0.000  0.00  0.00     0.186 A 
HETATM   10  C   UNK     0       9.465   0.500   0.000  0.00  0.00     0.057 A 
HETATM   11  C   UNK     0       7.733  -0.500   0.000  0.00  0.00     0.142 A 
HETATM   12  C   UNK     0       9.465  -0.500   0.000  0.00  0.00     0.011 A 
HETATM   13  C   UNK     0       6.867  -1.000   0.000  0.00  0.00     0.487 A 
HETATM   14  C   UNK     0       9.465   2.500   0.000  0.00  0.00     0.153 A 
HETATM   15  C   UNK     0       6.001   0.500   0.000  0.00  0.00     0.148 A 
HETATM   16  C   UNK     0      11.197   0.500   0.000  0.00  0.00     0.099 A 
HETATM   17  C   UNK     0       9.465   3.500   0.000  0.00  0.00     0.070 A 
HETATM   18  C   UNK     0      12.063   1.000   0.000  0.00  0.00     0.087 A 
HETATM   19  C   UNK     0       8.599   4.000   0.000  0.00  0.00     0.082 A 
HETATM   20  C   UNK     0      10.331   4.000   0.000  0.00  0.00     0.083 A 
HETATM   21  C   UNK     0      12.063   2.000   0.000  0.00  0.00     0.106 A 
HETATM   22  C   UNK     0      12.929   0.500   0.000  0.00  0.00     0.089 A 
HETATM   23  C   UNK     0      10.331   5.000   0.000  0.00  0.00     0.114 A 
HETATM   24  C   UNK     0       8.599   5.000   0.000  0.00  0.00     0.114 A 
HETATM   25  C   UNK     0      13.795   1.000   0.000  0.00  0.00     0.118 A 
HETATM   26  C   UNK     0      12.929   2.500   0.000  0.00  0.00     0.120 A 
HETATM   27  C   UNK     0       9.465   5.500   0.000  0.00  0.00     0.130 A 
HETATM   28  C   UNK     0      13.795   2.000   0.000  0.00  0.00     0.131 A 
ENDROOT
BRANCH  12  29
HETATM   29  C   UNK     0      10.331  -1.000   0.000  0.00  0.00     0.086 A 
HETATM   30  O   UNK     0      10.331  -2.000   0.000  0.00  0.00     0.000 OA
HETATM   31  C   UNK     0      11.197  -2.500   0.000  0.00  0.00     0.142 A 
HETATM   32  O   UNK     0      12.063  -2.000   0.000  0.00  0.00    -0.297 OA
BRANCH  31  33
HETATM   33  C   UNK     0      11.197  -3.500   0.000  0.00  0.00     0.089 A 
HETATM   34  C   UNK     0      12.063  -4.000   0.000  0.00  0.00     0.084 A 
HETATM   35  C   UNK     0      12.063  -5.000   0.000  0.00  0.00     0.115 A 
HETATM   36  C   UNK     0      10.331  -4.000   0.000  0.00  0.00     0.084 A 
HETATM   37  C   UNK     0      10.331  -5.000   0.000  0.00  0.00     0.115 A 
HETATM   38  C   UNK     0      11.197  -5.500   0.000  0.00  0.00     0.107 A 
BRANCH  35  39
HETATM   39  O   UNK     0      12.929  -5.500   0.000  0.00  0.00    -0.385 OA
HETATM   40  H   UNK     0      13.466  -5.190   0.000  0.00  0.00     0.210 HD
ENDBRANCH  35  39
BRANCH  37  41
HETATM   41  O   UNK     0       9.465  -5.500   0.000  0.00  0.00    -0.385 OA
HETATM   42  H   UNK     0       9.465  -6.120   0.000  0.00  0.00     0.210 HD
ENDBRANCH  37  41
BRANCH  38  43
HETATM   43  O   UNK     0      11.197  -6.500   0.000  0.00  0.00    -0.386 OA
HETATM   44  H   UNK     0      11.734  -6.810   0.000  0.00  0.00     0.210 HD
ENDBRANCH  38  43
ENDBRANCH  31  33
ENDBRANCH  12  29
BRANCH  13  45
HETATM   45  C   UNK     0       6.867  -2.000   0.000  0.00  0.00     0.019 C 
HETATM   46  O   UNK     0       7.733  -2.500   0.000  0.00  0.00    -0.324 OA
BRANCH  45  47
HETATM   47  C   UNK     0       6.001  -2.500   0.000  0.00  0.00     0.068 A 
HETATM   48  C   UNK     0       5.135  -2.000   0.000  0.00  0.00     0.082 A 
HETATM   49  C   UNK     0       4.269  -2.500   0.000  0.00  0.00     0.113 A 
HETATM   50  C   UNK     0       6.001  -3.500   0.000  0.00  0.00     0.082 A 
HETATM   51  C   UNK     0       5.135  -4.000   0.000  0.00  0.00     0.113 A 
HETATM   52  C   UNK     0       4.269  -3.500   0.000  0.00  0.00     0.106 A 
BRANCH  49  53
HETATM   53  O   UNK     0       3.403  -2.000   0.000  0.00  0.00    -0.385 OA
HETATM   54  H   UNK     0       2.866  -2.310   0.000  0.00  0.00     0.210 HD
ENDBRANCH  49  53
BRANCH  51  55
HETATM   55  O   UNK     0       5.135  -5.000   0.000  0.00  0.00    -0.385 OA
HETATM   56  H   UNK     0       5.672  -5.310   0.000  0.00  0.00     0.210 HD
ENDBRANCH  51  55
BRANCH  52  57
HETATM   57  O   UNK     0       3.403  -4.000   0.000  0.00  0.00    -0.386 OA
HETATM   58  H   UNK     0       3.403  -4.620   0.000  0.00  0.00     0.210 HD
ENDBRANCH  52  57
ENDBRANCH  45  47
ENDBRANCH  13  45
BRANCH  15  59
HETATM   59  C   UNK     0       5.135   1.000   0.000  0.00  0.00     0.083 A 
HETATM   60  C   UNK     0       5.135   2.000   0.000  0.00  0.00     0.081 A 
HETATM   61  C   UNK     0       4.269   2.500   0.000  0.00  0.00     0.113 A 
HETATM   62  C   UNK     0       4.269   0.500   0.000  0.00  0.00     0.081 A 
HETATM   63  C   UNK     0       3.403   1.000   0.000  0.00  0.00     0.113 A 
HETATM   64  C   UNK     0       3.403   2.000   0.000  0.00  0.00     0.106 A 
BRANCH  61  65
HETATM   65  O   UNK     0       4.269   3.500   0.000  0.00  0.00    -0.385 OA
HETATM   66  H   UNK     0       3.732   3.810   0.000  0.00  0.00     0.210 HD
ENDBRANCH  61  65
BRANCH  63  67
HETATM   67  O   UNK     0       2.537   0.500   0.000  0.00  0.00    -0.385 OA
HETATM   68  H   UNK     0       2.000   0.810   0.000  0.00  0.00     0.210 HD
ENDBRANCH  63  67
BRANCH  64  69
HETATM   69  O   UNK     0       2.537   2.500   0.000  0.00  0.00    -0.386 OA
HETATM   70  H   UNK     0       2.000   2.190   0.000  0.00  0.00     0.210 HD
ENDBRANCH  64  69
ENDBRANCH  15  59
BRANCH  25  71
HETATM   71  O   UNK     0      14.661   0.500   0.000  0.00  0.00    -0.385 OA
HETATM   72  H   UNK     0      14.661  -0.120   0.000  0.00  0.00     0.210 HD
ENDBRANCH  25  71
BRANCH  26  73
HETATM   73  O   UNK     0      12.929   3.500   0.000  0.00  0.00    -0.384 OA
HETATM   74  H   UNK     0      13.466   3.810   0.000  0.00  0.00     0.210 HD
ENDBRANCH  26  73
BRANCH  28  75
HETATM   75  O   UNK     0      14.661   2.500   0.000  0.00  0.00    -0.383 OA
HETATM   76  H   UNK     0      15.198   2.190   0.000  0.00  0.00     0.210 HD
ENDBRANCH  28  75
BRANCH  24  77
HETATM   77  O   UNK     0       7.733   5.500   0.000  0.00  0.00    -0.385 OA
HETATM   78  H   UNK     0       7.733   6.120   0.000  0.00  0.00     0.210 HD
ENDBRANCH  24  77
BRANCH  23  79
HETATM   79  O   UNK     0      11.197   5.500   0.000  0.00  0.00    -0.385 OA
HETATM   80  H   UNK     0      11.197   6.120   0.000  0.00  0.00     0.210 HD
ENDBRANCH  23  79
BRANCH  27  81
HETATM   81  O   UNK     0       9.465   6.500   0.000  0.00  0.00    -0.383 OA
HETATM   82  H   UNK     0      10.002   6.810   0.000  0.00  0.00     0.210 HD
ENDBRANCH  27  81
TORSDOF 32
