MODEL 1
REMARK VINA RESULT:      -7.6      0.000      0.000
REMARK  5 active torsions:
REMARK  status: ('A' for Active; 'I' for Inactive)
REMARK    1  A    between atoms: O_2  and  C_18 
REMARK    2  A    between atoms: N_4  and  C_24 
REMARK    3  A    between atoms: C_18  and  C_26 
REMARK    4  A    between atoms: C_27  and  C_28 
REMARK    5  A    between atoms: C_28  and  C_29 
ROOT
HETATM    1  O   UNK     0      -0.504  -2.492 -15.970  0.00  0.00    -0.313 OA
HETATM    2  O   UNK     0       0.218  -0.624 -14.859  0.00  0.00    -0.261 OA
HETATM    3  C   UNK     0      -0.141  -4.873 -13.844  0.00  0.00    -0.030 C 
HETATM    4  C   UNK     0      -0.378  -5.865 -15.020  0.00  0.00     0.001 C 
HETATM    5  C   UNK     0      -1.595  -6.821 -14.837  0.00  0.00    -0.005 C 
HETATM    6  C   UNK     0      -1.606  -7.502 -13.445  0.00  0.00    -0.002 C 
HETATM    7  C   UNK     0      -2.788  -8.537 -13.252  0.00  0.00    -0.036 C 
HETATM    8  C   UNK     0      -1.232  -3.793 -14.125  0.00  0.00     0.072 C 
HETATM    9  C   UNK     0      -0.304  -5.558 -12.477  0.00  0.00     0.010 C 
HETATM   10  C   UNK     0      -0.574  -4.916 -16.219  0.00  0.00     0.039 C 
HETATM   11  C   UNK     0      -1.253  -3.671 -15.649  0.00  0.00     0.141 C 
HETATM   12  C   UNK     0      -1.550  -6.426 -12.345  0.00  0.00     0.006 C 
HETATM   13  C   UNK     0      -2.824  -9.537 -14.454  0.00  0.00    -0.004 C 
HETATM   14  C   UNK     0      -1.586  -7.898 -15.935  0.00  0.00     0.006 C 
HETATM   15  C   UNK     0      -2.782  -8.826 -15.815  0.00  0.00     0.006 C 
HETATM   16  C   UNK     0      -1.075  -2.338 -13.691  0.00  0.00     0.169 C 
HETATM   17  C   UNK     0      -4.165  -7.829 -13.119  0.00  0.00     0.012 C 
HETATM   18  C   UNK     0       1.315  -4.344 -13.917  0.00  0.00     0.016 C 
HETATM   19  C   UNK     0      -4.038 -10.490 -14.406  0.00  0.00     0.040 C 
HETATM   20  C   UNK     0      -2.512  -9.341 -11.949  0.00  0.00     0.016 C 
HETATM   21  C   UNK     0      -5.353  -8.793 -13.063  0.00  0.00     0.036 C 
HETATM   22  C   UNK     0      -5.373  -9.751 -14.255  0.00  0.00     0.218 C 
HETATM   23  C   UNK     0      -0.362  -1.699 -14.860  0.00  0.00     0.298 C 
ENDROOT
BRANCH  16  24
HETATM   24  O   UNK     0      -2.345  -1.685 -13.666  0.00  0.00    -0.375 OA
HETATM   25  H   UNK     0      -2.241  -0.776 -13.996  0.00  0.00     0.211 HD
ENDBRANCH  16  24
BRANCH  16  26
HETATM   26  C   UNK     0      -0.430  -2.075 -12.381  0.00  0.00     0.018 C 
HETATM   27  C   UNK     0      -0.571  -0.931 -11.695  0.00  0.00    -0.023 C 
BRANCH  27  28
HETATM   28  C   UNK     0       0.082  -0.666 -10.358  0.00  0.00     0.007 C 
HETATM   29  C   UNK     0       0.907  -1.890  -9.947  0.00  0.00     0.014 C 
BRANCH  28  30
HETATM   30  C   UNK     0      -0.920  -0.242  -9.248  0.00  0.00    -0.015 C 
HETATM   31  C   UNK     0      -1.119   1.272  -9.121  0.00  0.00     0.010 C 
HETATM   32  C   UNK     0      -0.529  -0.825  -7.885  0.00  0.00     0.010 C 
ENDBRANCH  28  30
ENDBRANCH  27  28
ENDBRANCH  16  26
BRANCH  22  33
HETATM   33  N   UNK     0      -6.472 -10.705 -14.103  0.00  0.00     0.083 N 
HETATM   34  H   UNK     0      -6.224 -11.587 -14.548  0.00  0.00     0.313 HD
HETATM   35  H   UNK     0      -7.298 -10.357 -14.588  0.00  0.00     0.313 HD
ENDBRANCH  22  33
TORSDOF 5
ENDMDL
MODEL 2
REMARK VINA RESULT:      -7.0      3.570      6.021
REMARK  5 active torsions:
REMARK  status: ('A' for Active; 'I' for Inactive)
REMARK    1  A    between atoms: O_2  and  C_18 
REMARK    2  A    between atoms: N_4  and  C_24 
REMARK    3  A    between atoms: C_18  and  C_26 
REMARK    4  A    between atoms: C_27  and  C_28 
REMARK    5  A    between atoms: C_28  and  C_29 
ROOT
HETATM    1  O   UNK     0      -2.251   3.256 -14.185  0.00  0.00    -0.313 OA
HETATM    2  O   UNK     0      -1.519   5.121 -13.076  0.00  0.00    -0.261 OA
HETATM    3  C   UNK     0       0.348   1.380 -14.390  0.00  0.00    -0.030 C 
HETATM    4  C   UNK     0      -0.444   0.513 -15.410  0.00  0.00     0.001 C 
HETATM    5  C   UNK     0      -0.633  -0.979 -14.999  0.00  0.00    -0.005 C 
HETATM    6  C   UNK     0       0.691  -1.633 -14.531  0.00  0.00    -0.002 C 
HETATM    7  C   UNK     0       0.551  -3.169 -14.176  0.00  0.00    -0.036 C 
HETATM    8  C   UNK     0      -0.741   1.654 -13.305  0.00  0.00     0.072 C 
HETATM    9  C   UNK     0       1.577   0.636 -13.840  0.00  0.00     0.010 C 
HETATM   10  C   UNK     0      -1.793   1.255 -15.499  0.00  0.00     0.039 C 
HETATM   11  C   UNK     0      -2.029   1.843 -14.108  0.00  0.00     0.141 C 
HETATM   12  C   UNK     0       1.306  -0.796 -13.395  0.00  0.00     0.006 C 
HETATM   13  C   UNK     0      -0.159  -3.926 -15.346  0.00  0.00    -0.004 C 
HETATM   14  C   UNK     0      -1.214  -1.779 -16.177  0.00  0.00     0.006 C 
HETATM   15  C   UNK     0      -1.452  -3.231 -15.801  0.00  0.00     0.006 C 
HETATM   16  C   UNK     0      -0.726   2.902 -12.428  0.00  0.00     0.169 C 
HETATM   17  C   UNK     0      -0.238  -3.391 -12.855  0.00  0.00     0.012 C 
HETATM   18  C   UNK     0       0.869   2.652 -15.107  0.00  0.00     0.016 C 
HETATM   19  C   UNK     0      -0.458  -5.404 -15.012  0.00  0.00     0.040 C 
HETATM   20  C   UNK     0       1.982  -3.754 -14.006  0.00  0.00     0.016 C 
HETATM   21  C   UNK     0      -0.513  -4.863 -12.538  0.00  0.00     0.036 C 
HETATM   22  C   UNK     0      -1.219  -5.577 -13.692  0.00  0.00     0.218 C 
HETATM   23  C   UNK     0      -1.503   3.911 -13.241  0.00  0.00     0.298 C 
ENDROOT
BRANCH  16  24
HETATM   24  O   UNK     0      -1.534   2.705 -11.265  0.00  0.00    -0.375 OA
HETATM   25  H   UNK     0      -1.748   3.570 -10.877  0.00  0.00     0.211 HD
ENDBRANCH  16  24
BRANCH  16  26
HETATM   26  C   UNK     0       0.590   3.400 -11.958  0.00  0.00     0.018 C 
HETATM   27  C   UNK     0       1.081   3.170 -10.730  0.00  0.00    -0.023 C 
BRANCH  27  28
HETATM   28  C   UNK     0       2.425   3.673 -10.255  0.00  0.00     0.007 C 
HETATM   29  C   UNK     0       3.044   4.564 -11.338  0.00  0.00     0.014 C 
BRANCH  28  30
HETATM   30  C   UNK     0       3.392   2.541  -9.812  0.00  0.00    -0.015 C 
HETATM   31  C   UNK     0       2.783   1.135  -9.859  0.00  0.00     0.010 C 
HETATM   32  C   UNK     0       3.965   2.805  -8.414  0.00  0.00     0.010 C 
ENDBRANCH  28  30
ENDBRANCH  27  28
ENDBRANCH  16  26
BRANCH  22  33
HETATM   33  N   UNK     0      -1.374  -6.997 -13.373  0.00  0.00     0.083 N 
HETATM   34  H   UNK     0      -1.683  -7.502 -14.201  0.00  0.00     0.313 HD
HETATM   35  H   UNK     0      -2.105  -7.113 -12.672  0.00  0.00     0.313 HD
ENDBRANCH  22  33
TORSDOF 5
ENDMDL
MODEL 3
REMARK VINA RESULT:      -6.4      5.134      9.824
REMARK  5 active torsions:
REMARK  status: ('A' for Active; 'I' for Inactive)
REMARK    1  A    between atoms: O_2  and  C_18 
REMARK    2  A    between atoms: N_4  and  C_24 
REMARK    3  A    between atoms: C_18  and  C_26 
REMARK    4  A    between atoms: C_27  and  C_28 
REMARK    5  A    between atoms: C_28  and  C_29 
ROOT
HETATM    1  O   UNK     0       4.069  -1.772  -9.814  0.00  0.00    -0.313 OA
HETATM    2  O   UNK     0       4.023  -3.965 -10.471  0.00  0.00    -0.261 OA
HETATM    3  C   UNK     0       2.215  -0.260 -11.958  0.00  0.00    -0.030 C 
HETATM    4  C   UNK     0       2.777   1.078 -11.395  0.00  0.00     0.001 C 
HETATM    5  C   UNK     0       1.705   2.051 -10.818  0.00  0.00    -0.005 C 
HETATM    6  C   UNK     0       0.504   2.242 -11.780  0.00  0.00    -0.002 C 
HETATM    7  C   UNK     0      -0.569   3.282 -11.258  0.00  0.00    -0.036 C 
HETATM    8  C   UNK     0       1.963  -1.066 -10.645  0.00  0.00     0.072 C 
HETATM    9  C   UNK     0       0.939  -0.040 -12.787  0.00  0.00     0.010 C 
HETATM   10  C   UNK     0       3.754   0.594 -10.305  0.00  0.00     0.039 C 
HETATM   11  C   UNK     0       3.138  -0.686  -9.742  0.00  0.00     0.141 C 
HETATM   12  C   UNK     0      -0.095   0.869 -12.135  0.00  0.00     0.006 C 
HETATM   13  C   UNK     0       0.136   4.614 -10.841  0.00  0.00    -0.004 C 
HETATM   14  C   UNK     0       2.343   3.416 -10.516  0.00  0.00     0.006 C 
HETATM   15  C   UNK     0       1.337   4.381  -9.912  0.00  0.00     0.006 C 
HETATM   16  C   UNK     0       2.006  -2.591 -10.600  0.00  0.00     0.169 C 
HETATM   17  C   UNK     0      -1.384   2.723 -10.059  0.00  0.00     0.012 C 
HETATM   18  C   UNK     0       3.269  -0.892 -12.902  0.00  0.00     0.016 C 
HETATM   19  C   UNK     0      -0.831   5.627 -10.190  0.00  0.00     0.040 C 
HETATM   20  C   UNK     0      -1.548   3.586 -12.428  0.00  0.00     0.016 C 
HETATM   21  C   UNK     0      -2.344   3.740  -9.435  0.00  0.00     0.036 C 
HETATM   22  C   UNK     0      -1.628   5.028  -9.025  0.00  0.00     0.218 C 
HETATM   23  C   UNK     0       3.461  -2.892 -10.321  0.00  0.00     0.298 C 
ENDROOT
BRANCH  16  24
HETATM   24  O   UNK     0       1.329  -3.075  -9.438  0.00  0.00    -0.375 OA
HETATM   25  H   UNK     0       1.955  -3.104  -8.694  0.00  0.00     0.211 HD
ENDBRANCH  16  24
BRANCH  16  26
HETATM   26  C   UNK     0       1.454  -3.331 -11.760  0.00  0.00     0.018 C 
HETATM   27  C   UNK     0       0.152  -3.350 -12.083  0.00  0.00    -0.023 C 
BRANCH  27  28
HETATM   28  C   UNK     0      -0.409  -4.100 -13.269  0.00  0.00     0.007 C 
HETATM   29  C   UNK     0       0.637  -5.098 -13.777  0.00  0.00     0.014 C 
BRANCH  28  30
HETATM   30  C   UNK     0      -0.927  -3.174 -14.404  0.00  0.00    -0.015 C 
HETATM   31  C   UNK     0       0.176  -2.586 -15.292  0.00  0.00     0.010 C 
HETATM   32  C   UNK     0      -1.799  -2.040 -13.851  0.00  0.00     0.010 C 
ENDBRANCH  28  30
ENDBRANCH  27  28
ENDBRANCH  16  26
BRANCH  22  33
HETATM   33  N   UNK     0      -2.605   5.996  -8.522  0.00  0.00     0.083 N 
HETATM   34  H   UNK     0      -3.401   6.040  -9.157  0.00  0.00     0.313 HD
HETATM   35  H   UNK     0      -2.191   6.927  -8.510  0.00  0.00     0.313 HD
ENDBRANCH  22  33
TORSDOF 5
ENDMDL
MODEL 4
REMARK VINA RESULT:      -6.3      5.404      9.625
REMARK  5 active torsions:
REMARK  status: ('A' for Active; 'I' for Inactive)
REMARK    1  A    between atoms: O_2  and  C_18 
REMARK    2  A    between atoms: N_4  and  C_24 
REMARK    3  A    between atoms: C_18  and  C_26 
REMARK    4  A    between atoms: C_27  and  C_28 
REMARK    5  A    between atoms: C_28  and  C_29 
ROOT
HETATM    1  O   UNK     0       4.069  -3.934  -7.329  0.00  0.00    -0.313 OA
HETATM    2  O   UNK     0       3.860  -6.214  -7.381  0.00  0.00    -0.261 OA
HETATM    3  C   UNK     0       2.643  -2.943 -10.032  0.00  0.00    -0.030 C 
HETATM    4  C   UNK     0       3.279  -1.546  -9.772  0.00  0.00     0.001 C 
HETATM    5  C   UNK     0       2.261  -0.376  -9.627  0.00  0.00    -0.005 C 
HETATM    6  C   UNK     0       1.204  -0.371 -10.761  0.00  0.00    -0.002 C 
HETATM    7  C   UNK     0       0.197   0.848 -10.688  0.00  0.00    -0.036 C 
HETATM    8  C   UNK     0       2.159  -3.333  -8.600  0.00  0.00     0.072 C 
HETATM    9  C   UNK     0       1.501  -2.868 -11.058  0.00  0.00     0.010 C 
HETATM   10  C   UNK     0       4.069  -1.779  -8.468  0.00  0.00     0.039 C 
HETATM   11  C   UNK     0       3.258  -2.805  -7.677  0.00  0.00     0.141 C 
HETATM   12  C   UNK     0       0.504  -1.740 -10.819  0.00  0.00     0.006 C 
HETATM   13  C   UNK     0       0.990   2.189 -10.545  0.00  0.00    -0.004 C 
HETATM   14  C   UNK     0       3.005   0.969  -9.613  0.00  0.00     0.006 C 
HETATM   15  C   UNK     0       2.047   2.134  -9.431  0.00  0.00     0.006 C 
HETATM   16  C   UNK     0       2.032  -4.785  -8.147  0.00  0.00     0.169 C 
HETATM   17  C   UNK     0      -0.803   0.705  -9.507  0.00  0.00     0.012 C 
HETATM   18  C   UNK     0       3.723  -3.887 -10.620  0.00  0.00     0.016 C 
HETATM   19  C   UNK     0       0.072   3.410 -10.326  0.00  0.00     0.040 C 
HETATM   20  C   UNK     0      -0.604   0.888 -12.020  0.00  0.00     0.016 C 
HETATM   21  C   UNK     0      -1.712   1.922  -9.315  0.00  0.00     0.036 C 
HETATM   22  C   UNK     0      -0.912   3.217  -9.165  0.00  0.00     0.218 C 
HETATM   23  C   UNK     0       3.405  -5.103  -7.600  0.00  0.00     0.298 C 
ENDROOT
BRANCH  16  24
HETATM   24  O   UNK     0       1.179  -4.877  -7.003  0.00  0.00    -0.375 OA
HETATM   25  H   UNK     0       0.842  -3.992  -6.785  0.00  0.00     0.211 HD
ENDBRANCH  16  24
BRANCH  16  26
HETATM   26  C   UNK     0       1.537  -5.775  -9.134  0.00  0.00     0.018 C 
HETATM   27  C   UNK     0       1.008  -6.962  -8.800  0.00  0.00    -0.023 C 
BRANCH  27  28
HETATM   28  C   UNK     0       0.499  -7.968  -9.807  0.00  0.00     0.007 C 
HETATM   29  C   UNK     0       0.696  -7.411 -11.222  0.00  0.00     0.014 C 
BRANCH  28  30
HETATM   30  C   UNK     0      -0.970  -8.410  -9.557  0.00  0.00    -0.015 C 
HETATM   31  C   UNK     0      -1.440  -8.250  -8.107  0.00  0.00     0.010 C 
HETATM   32  C   UNK     0      -1.208  -9.854 -10.017  0.00  0.00     0.010 C 
ENDBRANCH  28  30
ENDBRANCH  27  28
ENDBRANCH  16  26
BRANCH  22  33
HETATM   33  N   UNK     0      -1.829   4.355  -9.077  0.00  0.00     0.083 N 
HETATM   34  H   UNK     0      -2.043   4.696 -10.013  0.00  0.00     0.313 HD
HETATM   35  H   UNK     0      -1.375   5.124  -8.585  0.00  0.00     0.313 HD
ENDBRANCH  22  33
TORSDOF 5
ENDMDL
MODEL 5
REMARK VINA RESULT:      -6.3      3.700      8.510
REMARK  5 active torsions:
REMARK  status: ('A' for Active; 'I' for Inactive)
REMARK    1  A    between atoms: O_2  and  C_18 
REMARK    2  A    between atoms: N_4  and  C_24 
REMARK    3  A    between atoms: C_18  and  C_26 
REMARK    4  A    between atoms: C_27  and  C_28 
REMARK    5  A    between atoms: C_28  and  C_29 
ROOT
HETATM    1  O   UNK     0       0.712  -7.691 -11.877  0.00  0.00    -0.313 OA
HETATM    2  O   UNK     0      -0.788  -9.295 -12.524  0.00  0.00    -0.261 OA
HETATM    3  C   UNK     0      -0.183  -5.065 -13.496  0.00  0.00    -0.030 C 
HETATM    4  C   UNK     0       1.172  -4.427 -13.073  0.00  0.00     0.001 C 
HETATM    5  C   UNK     0       1.050  -3.112 -12.246  0.00  0.00    -0.005 C 
HETATM    6  C   UNK     0       0.067  -2.100 -12.888  0.00  0.00    -0.002 C 
HETATM    7  C   UNK     0      -0.025  -0.723 -12.113  0.00  0.00    -0.036 C 
HETATM    8  C   UNK     0      -0.629  -5.756 -12.169  0.00  0.00     0.072 C 
HETATM    9  C   UNK     0      -1.183  -4.006 -13.992  0.00  0.00     0.010 C 
HETATM   10  C   UNK     0       1.828  -5.557 -12.254  0.00  0.00     0.039 C 
HETATM   11  C   UNK     0       0.674  -6.291 -11.572  0.00  0.00     0.141 C 
HETATM   12  C   UNK     0      -1.300  -2.775 -13.101  0.00  0.00     0.006 C 
HETATM   13  C   UNK     0       1.409  -0.152 -11.865  0.00  0.00    -0.004 C 
HETATM   14  C   UNK     0       2.433  -2.458 -12.093  0.00  0.00     0.006 C 
HETATM   15  C   UNK     0       2.362  -1.193 -11.255  0.00  0.00     0.006 C 
HETATM   16  C   UNK     0      -1.520  -6.993 -12.150  0.00  0.00     0.169 C 
HETATM   17  C   UNK     0      -0.773  -0.868 -10.758  0.00  0.00     0.012 C 
HETATM   18  C   UNK     0       0.065  -6.042 -14.673  0.00  0.00     0.016 C 
HETATM   19  C   UNK     0       1.407   1.120 -10.991  0.00  0.00     0.040 C 
HETATM   20  C   UNK     0      -0.807   0.279 -13.010  0.00  0.00     0.016 C 
HETATM   21  C   UNK     0      -0.772   0.409  -9.912  0.00  0.00     0.036 C 
HETATM   22  C   UNK     0       0.643   0.939  -9.674  0.00  0.00     0.218 C 
HETATM   23  C   UNK     0      -0.535  -8.137 -12.234  0.00  0.00     0.298 C 
ENDROOT
BRANCH  16  24
HETATM   24  O   UNK     0      -2.123  -7.155 -10.864  0.00  0.00    -0.375 OA
HETATM   25  H   UNK     0      -2.045  -6.321 -10.370  0.00  0.00     0.211 HD
ENDBRANCH  16  24
BRANCH  16  26
HETATM   26  C   UNK     0      -2.613  -7.072 -13.150  0.00  0.00     0.018 C 
HETATM   27  C   UNK     0      -3.706  -7.835 -13.004  0.00  0.00    -0.023 C 
BRANCH  27  28
HETATM   28  C   UNK     0      -4.822  -7.910 -14.021  0.00  0.00     0.007 C 
HETATM   29  C   UNK     0      -6.154  -8.131 -13.296  0.00  0.00     0.014 C 
BRANCH  28  30
HETATM   30  C   UNK     0      -4.582  -8.973 -15.131  0.00  0.00    -0.015 C 
HETATM   31  C   UNK     0      -3.858 -10.235 -14.651  0.00  0.00     0.010 C 
HETATM   32  C   UNK     0      -3.832  -8.375 -16.328  0.00  0.00     0.010 C 
ENDBRANCH  28  30
ENDBRANCH  27  28
ENDBRANCH  16  26
BRANCH  22  33
HETATM   33  N   UNK     0       0.577   2.205  -8.941  0.00  0.00     0.083 N 
HETATM   34  H   UNK     0      -0.028   2.857  -9.438  0.00  0.00     0.313 HD
HETATM   35  H   UNK     0       1.502   2.632  -8.911  0.00  0.00     0.313 HD
ENDBRANCH  22  33
TORSDOF 5
ENDMDL
MODEL 6
REMARK VINA RESULT:      -5.9      1.629      2.561
REMARK  5 active torsions:
REMARK  status: ('A' for Active; 'I' for Inactive)
REMARK    1  A    between atoms: O_2  and  C_18 
REMARK    2  A    between atoms: N_4  and  C_24 
REMARK    3  A    between atoms: C_18  and  C_26 
REMARK    4  A    between atoms: C_27  and  C_28 
REMARK    5  A    between atoms: C_28  and  C_29 
ROOT
HETATM    1  O   UNK     0      -0.946  -0.411 -14.452  0.00  0.00    -0.313 OA
HETATM    2  O   UNK     0       0.116   1.098 -13.097  0.00  0.00    -0.261 OA
HETATM    3  C   UNK     0       0.546  -3.195 -13.866  0.00  0.00    -0.030 C 
HETATM    4  C   UNK     0      -0.176  -3.766 -15.120  0.00  0.00     0.001 C 
HETATM    5  C   UNK     0      -1.091  -4.998 -14.848  0.00  0.00    -0.005 C 
HETATM    6  C   UNK     0      -0.383  -6.083 -13.998  0.00  0.00    -0.002 C 
HETATM    7  C   UNK     0      -1.258  -7.381 -13.764  0.00  0.00    -0.036 C 
HETATM    8  C   UNK     0      -0.605  -2.388 -13.186  0.00  0.00     0.072 C 
HETATM    9  C   UNK     0       1.110  -4.313 -12.972  0.00  0.00     0.010 C 
HETATM   10  C   UNK     0      -0.987  -2.552 -15.617  0.00  0.00     0.039 C 
HETATM   11  C   UNK     0      -1.373  -1.776 -14.358  0.00  0.00     0.141 C 
HETATM   12  C   UNK     0       0.140  -5.454 -12.693  0.00  0.00     0.006 C 
HETATM   13  C   UNK     0      -1.817  -7.901 -15.129  0.00  0.00    -0.004 C 
HETATM   14  C   UNK     0      -1.556  -5.611 -16.179  0.00  0.00     0.006 C 
HETATM   15  C   UNK     0      -2.486  -6.791 -15.955  0.00  0.00     0.006 C 
HETATM   16  C   UNK     0      -0.340  -1.169 -12.307  0.00  0.00     0.169 C 
HETATM   17  C   UNK     0      -2.434  -7.120 -12.783  0.00  0.00     0.012 C 
HETATM   18  C   UNK     0       1.747  -2.330 -14.326  0.00  0.00     0.016 C 
HETATM   19  C   UNK     0      -2.796  -9.084 -14.966  0.00  0.00     0.040 C 
HETATM   20  C   UNK     0      -0.336  -8.477 -13.159  0.00  0.00     0.016 C 
HETATM   21  C   UNK     0      -3.386  -8.309 -12.627  0.00  0.00     0.036 C 
HETATM   22  C   UNK     0      -3.928  -8.790 -13.974  0.00  0.00     0.218 C 
HETATM   23  C   UNK     0      -0.327  -0.022 -13.292  0.00  0.00     0.298 C 
ENDROOT
BRANCH  16  24
HETATM   24  O   UNK     0      -1.474  -0.895 -11.480  0.00  0.00    -0.375 OA
HETATM   25  H   UNK     0      -1.984  -1.714 -11.359  0.00  0.00     0.211 HD
ENDBRANCH  16  24
BRANCH  16  26
HETATM   26  C   UNK     0       0.844  -1.205 -11.416  0.00  0.00     0.018 C 
HETATM   27  C   UNK     0       0.851  -1.784 -10.205  0.00  0.00    -0.023 C 
BRANCH  27  28
HETATM   28  C   UNK     0       2.061  -1.825  -9.300  0.00  0.00     0.007 C 
HETATM   29  C   UNK     0       3.320  -1.540 -10.126  0.00  0.00     0.014 C 
BRANCH  28  30
HETATM   30  C   UNK     0       2.186  -3.144  -8.487  0.00  0.00    -0.015 C 
HETATM   31  C   UNK     0       1.831  -3.006  -7.002  0.00  0.00     0.010 C 
HETATM   32  C   UNK     0       3.583  -3.760  -8.626  0.00  0.00     0.010 C 
ENDBRANCH  28  30
ENDBRANCH  27  28
ENDBRANCH  16  26
BRANCH  22  33
HETATM   33  N   UNK     0      -4.756  -9.981 -13.775  0.00  0.00     0.083 N 
HETATM   34  H   UNK     0      -4.361 -10.763 -14.295  0.00  0.00     0.313 HD
HETATM   35  H   UNK     0      -5.687  -9.820 -14.157  0.00  0.00     0.313 HD
ENDBRANCH  22  33
TORSDOF 5
ENDMDL
MODEL 7
REMARK VINA RESULT:      -5.9      4.415      8.915
REMARK  5 active torsions:
REMARK  status: ('A' for Active; 'I' for Inactive)
REMARK    1  A    between atoms: O_2  and  C_18 
REMARK    2  A    between atoms: N_4  and  C_24 
REMARK    3  A    between atoms: C_18  and  C_26 
REMARK    4  A    between atoms: C_27  and  C_28 
REMARK    5  A    between atoms: C_28  and  C_29 
ROOT
HETATM    1  O   UNK     0       3.720  -6.470  -9.257  0.00  0.00    -0.313 OA
HETATM    2  O   UNK     0       3.088  -8.603  -9.797  0.00  0.00    -0.261 OA
HETATM    3  C   UNK     0       2.306  -4.634 -11.481  0.00  0.00    -0.030 C 
HETATM    4  C   UNK     0       3.208  -3.465 -10.989  0.00  0.00     0.001 C 
HETATM    5  C   UNK     0       2.437  -2.215 -10.467  0.00  0.00    -0.005 C 
HETATM    6  C   UNK     0       1.319  -1.762 -11.440  0.00  0.00    -0.002 C 
HETATM    7  C   UNK     0       0.564  -0.451 -10.977  0.00  0.00    -0.036 C 
HETATM    8  C   UNK     0       1.865  -5.276 -10.128  0.00  0.00     0.072 C 
HETATM    9  C   UNK     0       1.124  -4.127 -12.325  0.00  0.00     0.010 C 
HETATM   10  C   UNK     0       4.035  -4.132  -9.872  0.00  0.00     0.039 C 
HETATM   11  C   UNK     0       3.109  -5.174  -9.244  0.00  0.00     0.141 C 
HETATM   12  C   UNK     0       0.374  -2.944 -11.723  0.00  0.00     0.006 C 
HETATM   13  C   UNK     0       1.601   0.667 -10.628  0.00  0.00    -0.004 C 
HETATM   14  C   UNK     0       3.418  -1.053 -10.235  0.00  0.00     0.006 C 
HETATM   15  C   UNK     0       2.709   0.173  -9.685  0.00  0.00     0.006 C 
HETATM   16  C   UNK     0       1.505  -6.753 -10.003  0.00  0.00     0.169 C 
HETATM   17  C   UNK     0      -0.355  -0.712  -9.751  0.00  0.00     0.012 C 
HETATM   18  C   UNK     0       3.145  -5.569 -12.389  0.00  0.00     0.016 C 
HETATM   19  C   UNK     0       0.943   1.932 -10.033  0.00  0.00     0.040 C 
HETATM   20  C   UNK     0      -0.313   0.041 -12.163  0.00  0.00     0.016 C 
HETATM   21  C   UNK     0      -1.005   0.554  -9.185  0.00  0.00     0.036 C 
HETATM   22  C   UNK     0       0.030   1.626  -8.840  0.00  0.00     0.218 C 
HETATM   23  C   UNK     0       2.831  -7.413  -9.706  0.00  0.00     0.298 C 
ENDROOT
BRANCH  16  24
HETATM   24  O   UNK     0       0.737  -6.981  -8.819  0.00  0.00    -0.375 OA
HETATM   25  H   UNK     0       1.338  -7.219  -8.092  0.00  0.00     0.211 HD
ENDBRANCH  16  24
BRANCH  16  26
HETATM   26  C   UNK     0       0.763  -7.380 -11.124  0.00  0.00     0.018 C 
HETATM   27  C   UNK     0      -0.527  -7.131 -11.398  0.00  0.00    -0.023 C 
BRANCH  27  28
HETATM   28  C   UNK     0      -1.280  -7.766 -12.544  0.00  0.00     0.007 C 
HETATM   29  C   UNK     0      -1.371  -6.769 -13.705  0.00  0.00     0.014 C 
BRANCH  28  30
HETATM   30  C   UNK     0      -2.677  -8.317 -12.142  0.00  0.00    -0.015 C 
HETATM   31  C   UNK     0      -2.729  -9.838 -11.966  0.00  0.00     0.010 C 
HETATM   32  C   UNK     0      -3.761  -7.876 -13.132  0.00  0.00     0.010 C 
ENDBRANCH  28  30
ENDBRANCH  27  28
ENDBRANCH  16  26
BRANCH  22  33
HETATM   33  N   UNK     0      -0.650   2.842  -8.392  0.00  0.00     0.083 N 
HETATM   34  H   UNK     0      -1.123   2.663  -7.507  0.00  0.00     0.313 HD
HETATM   35  H   UNK     0      -1.376   3.096  -9.061  0.00  0.00     0.313 HD
ENDBRANCH  22  33
TORSDOF 5
ENDMDL
MODEL 8
REMARK VINA RESULT:      -5.7      2.419      2.832
REMARK  5 active torsions:
REMARK  status: ('A' for Active; 'I' for Inactive)
REMARK    1  A    between atoms: O_2  and  C_18 
REMARK    2  A    between atoms: N_4  and  C_24 
REMARK    3  A    between atoms: C_18  and  C_26 
REMARK    4  A    between atoms: C_27  and  C_28 
REMARK    5  A    between atoms: C_28  and  C_29 
ROOT
HETATM    1  O   UNK     0      -1.164  -3.059 -16.009  0.00  0.00    -0.313 OA
HETATM    2  O   UNK     0      -1.018  -0.788 -15.756  0.00  0.00    -0.261 OA
HETATM    3  C   UNK     0       0.883  -4.235 -13.830  0.00  0.00    -0.030 C 
HETATM    4  C   UNK     0       0.736  -5.613 -14.539  0.00  0.00     0.001 C 
HETATM    5  C   UNK     0       0.199  -6.763 -13.635  0.00  0.00    -0.005 C 
HETATM    6  C   UNK     0       0.944  -6.845 -12.279  0.00  0.00    -0.002 C 
HETATM    7  C   UNK     0       0.475  -8.049 -11.366  0.00  0.00    -0.036 C 
HETATM    8  C   UNK     0      -0.597  -3.739 -13.808  0.00  0.00     0.072 C 
HETATM    9  C   UNK     0       1.495  -4.377 -12.427  0.00  0.00     0.010 C 
HETATM   10  C   UNK     0      -0.238  -5.291 -15.691  0.00  0.00     0.039 C 
HETATM   11  C   UNK     0      -1.167  -4.205 -15.149  0.00  0.00     0.141 C 
HETATM   12  C   UNK     0       0.878  -5.479 -11.572  0.00  0.00     0.006 C 
HETATM   13  C   UNK     0       0.492  -9.380 -12.186  0.00  0.00    -0.004 C 
HETATM   14  C   UNK     0       0.321  -8.109 -14.370  0.00  0.00     0.006 C 
HETATM   15  C   UNK     0      -0.232  -9.252 -13.536  0.00  0.00     0.006 C 
HETATM   16  C   UNK     0      -0.963  -2.258 -13.804  0.00  0.00     0.169 C 
HETATM   17  C   UNK     0      -0.945  -7.814 -10.779  0.00  0.00     0.012 C 
HETATM   18  C   UNK     0       1.843  -3.343 -14.657  0.00  0.00     0.016 C 
HETATM   19  C   UNK     0      -0.089 -10.577 -11.401  0.00  0.00     0.040 C 
HETATM   20  C   UNK     0       1.484  -8.181 -10.190  0.00  0.00     0.016 C 
HETATM   21  C   UNK     0      -1.497  -9.008  -9.996  0.00  0.00     0.036 C 
HETATM   22  C   UNK     0      -1.481 -10.294 -10.824  0.00  0.00     0.218 C 
HETATM   23  C   UNK     0      -1.031  -1.909 -15.273  0.00  0.00     0.298 C 
ENDROOT
BRANCH  16  24
HETATM   24  O   UNK     0      -2.306  -2.077 -13.348  0.00  0.00    -0.375 OA
HETATM   25  H   UNK     0      -2.622  -2.908 -12.953  0.00  0.00     0.211 HD
ENDBRANCH  16  24
BRANCH  16  26
HETATM   26  C   UNK     0      -0.112  -1.339 -13.011  0.00  0.00     0.018 C 
HETATM   27  C   UNK     0      -0.206  -1.195 -11.680  0.00  0.00    -0.023 C 
BRANCH  27  28
HETATM   28  C   UNK     0       0.666  -0.262 -10.872  0.00  0.00     0.007 C 
HETATM   29  C   UNK     0       1.699  -1.084 -10.091  0.00  0.00     0.014 C 
BRANCH  28  30
HETATM   30  C   UNK     0      -0.136   0.694  -9.944  0.00  0.00    -0.015 C 
HETATM   31  C   UNK     0      -1.181  -0.007  -9.068  0.00  0.00     0.010 C 
HETATM   32  C   UNK     0      -0.806   1.819 -10.741  0.00  0.00     0.010 C 
ENDBRANCH  28  30
ENDBRANCH  27  28
ENDBRANCH  16  26
BRANCH  22  33
HETATM   33  N   UNK     0      -1.931 -11.417  -9.999  0.00  0.00     0.083 N 
HETATM   34  H   UNK     0      -2.600 -11.980 -10.523  0.00  0.00     0.313 HD
HETATM   35  H   UNK     0      -2.426 -11.065  -9.181  0.00  0.00     0.313 HD
ENDBRANCH  22  33
TORSDOF 5
ENDMDL
MODEL 9
REMARK VINA RESULT:      -5.7      2.057      2.660
REMARK  5 active torsions:
REMARK  status: ('A' for Active; 'I' for Inactive)
REMARK    1  A    between atoms: O_2  and  C_18 
REMARK    2  A    between atoms: N_4  and  C_24 
REMARK    3  A    between atoms: C_18  and  C_26 
REMARK    4  A    between atoms: C_27  and  C_28 
REMARK    5  A    between atoms: C_28  and  C_29 
ROOT
HETATM    1  O   UNK     0       1.025  -1.966 -14.494  0.00  0.00    -0.313 OA
HETATM    2  O   UNK     0       2.464  -0.990 -13.004  0.00  0.00    -0.261 OA
HETATM    3  C   UNK     0       1.171  -5.101 -13.805  0.00  0.00    -0.030 C 
HETATM    4  C   UNK     0       0.414  -5.358 -15.140  0.00  0.00     0.001 C 
HETATM    5  C   UNK     0      -0.949  -6.098 -14.991  0.00  0.00    -0.005 C 
HETATM    6  C   UNK     0      -0.842  -7.355 -14.092  0.00  0.00    -0.002 C 
HETATM    7  C   UNK     0      -2.192  -8.173 -13.978  0.00  0.00    -0.036 C 
HETATM    8  C   UNK     0       0.389  -3.874 -13.237  0.00  0.00     0.072 C 
HETATM    9  C   UNK     0       1.129  -6.327 -12.878  0.00  0.00     0.010 C 
HETATM   10  C   UNK     0       0.231  -3.932 -15.697  0.00  0.00     0.039 C 
HETATM   11  C   UNK     0       0.067  -3.032 -14.473  0.00  0.00     0.141 C 
HETATM   12  C   UNK     0      -0.248  -6.962 -12.727  0.00  0.00     0.006 C 
HETATM   13  C   UNK     0      -2.768  -8.454 -15.405  0.00  0.00    -0.004 C 
HETATM   14  C   UNK     0      -1.481  -6.502 -16.376  0.00  0.00     0.006 C 
HETATM   15  C   UNK     0      -2.831  -7.190 -16.276  0.00  0.00     0.006 C 
HETATM   16  C   UNK     0       1.036  -2.849 -12.311  0.00  0.00     0.169 C 
HETATM   17  C   UNK     0      -3.254  -7.427 -13.123  0.00  0.00     0.012 C 
HETATM   18  C   UNK     0       2.663  -4.817 -14.117  0.00  0.00     0.016 C 
HETATM   19  C   UNK     0      -4.158  -9.127 -15.370  0.00  0.00     0.040 C 
HETATM   20  C   UNK     0      -1.872  -9.535 -13.298  0.00  0.00     0.016 C 
HETATM   21  C   UNK     0      -4.621  -8.117 -13.093  0.00  0.00     0.036 C 
HETATM   22  C   UNK     0      -5.167  -8.368 -14.500  0.00  0.00     0.218 C 
HETATM   23  C   UNK     0       1.623  -1.835 -13.267  0.00  0.00     0.298 C 
ENDROOT
BRANCH  16  24
HETATM   24  O   UNK     0       0.034  -2.112 -11.605  0.00  0.00    -0.375 OA
HETATM   25  H   UNK     0      -0.359  -1.456 -12.205  0.00  0.00     0.211 HD
ENDBRANCH  16  24
BRANCH  16  26
HETATM   26  C   UNK     0       2.000  -3.344 -11.299  0.00  0.00     0.018 C 
HETATM   27  C   UNK     0       1.655  -3.708 -10.054  0.00  0.00    -0.023 C 
BRANCH  27  28
HETATM   28  C   UNK     0       2.638  -4.218  -9.025  0.00  0.00     0.007 C 
HETATM   29  C   UNK     0       2.256  -5.647  -8.626  0.00  0.00     0.014 C 
BRANCH  28  30
HETATM   30  C   UNK     0       2.782  -3.288  -7.788  0.00  0.00    -0.015 C 
HETATM   31  C   UNK     0       3.382  -3.969  -6.553  0.00  0.00     0.010 C 
HETATM   32  C   UNK     0       1.445  -2.637  -7.416  0.00  0.00     0.010 C 
ENDBRANCH  28  30
ENDBRANCH  27  28
ENDBRANCH  16  26
BRANCH  22  33
HETATM   33  N   UNK     0      -6.427  -9.109 -14.413  0.00  0.00     0.083 N 
HETATM   34  H   UNK     0      -7.205  -8.486 -14.625  0.00  0.00     0.313 HD
HETATM   35  H   UNK     0      -6.569  -9.435 -13.458  0.00  0.00     0.313 HD
ENDBRANCH  22  33
TORSDOF 5
ENDMDL
