REMARK VINA RESULT:      -7.6      0.000      0.000
REMARK  5 active torsions:
REMARK  status: ('A' for Active; 'I' for Inactive)
REMARK    1  A    between atoms: O_2  and  C_18 
REMARK    2  A    between atoms: N_4  and  C_24 
REMARK    3  A    between atoms: C_18  and  C_26 
REMARK    4  A    between atoms: C_27  and  C_28 
REMARK    5  A    between atoms: C_28  and  C_29 
ROOT
HETATM    1  O   UNK     0      -0.504  -2.492 -15.970  0.00  0.00    -0.313 OA
HETATM    2  O   UNK     0       0.218  -0.624 -14.859  0.00  0.00    -0.261 OA
HETATM    3  C   UNK     0      -0.141  -4.873 -13.844  0.00  0.00    -0.030 C 
HETATM    4  C   UNK     0      -0.378  -5.865 -15.020  0.00  0.00     0.001 C 
HETATM    5  C   UNK     0      -1.595  -6.821 -14.837  0.00  0.00    -0.005 C 
HETATM    6  C   UNK     0      -1.606  -7.502 -13.445  0.00  0.00    -0.002 C 
HETATM    7  C   UNK     0      -2.788  -8.537 -13.252  0.00  0.00    -0.036 C 
HETATM    8  C   UNK     0      -1.232  -3.793 -14.125  0.00  0.00     0.072 C 
HETATM    9  C   UNK     0      -0.304  -5.558 -12.477  0.00  0.00     0.010 C 
HETATM   10  C   UNK     0      -0.574  -4.916 -16.219  0.00  0.00     0.039 C 
HETATM   11  C   UNK     0      -1.253  -3.671 -15.649  0.00  0.00     0.141 C 
HETATM   12  C   UNK     0      -1.550  -6.426 -12.345  0.00  0.00     0.006 C 
HETATM   13  C   UNK     0      -2.824  -9.537 -14.454  0.00  0.00    -0.004 C 
HETATM   14  C   UNK     0      -1.586  -7.898 -15.935  0.00  0.00     0.006 C 
HETATM   15  C   UNK     0      -2.782  -8.826 -15.815  0.00  0.00     0.006 C 
HETATM   16  C   UNK     0      -1.075  -2.338 -13.691  0.00  0.00     0.169 C 
HETATM   17  C   UNK     0      -4.165  -7.829 -13.119  0.00  0.00     0.012 C 
HETATM   18  C   UNK     0       1.315  -4.344 -13.917  0.00  0.00     0.016 C 
HETATM   19  C   UNK     0      -4.038 -10.490 -14.406  0.00  0.00     0.040 C 
HETATM   20  C   UNK     0      -2.512  -9.341 -11.949  0.00  0.00     0.016 C 
HETATM   21  C   UNK     0      -5.353  -8.793 -13.063  0.00  0.00     0.036 C 
HETATM   22  C   UNK     0      -5.373  -9.751 -14.255  0.00  0.00     0.218 C 
HETATM   23  C   UNK     0      -0.362  -1.699 -14.860  0.00  0.00     0.298 C 
ENDROOT
BRANCH  16  24
HETATM   24  O   UNK     0      -2.345  -1.685 -13.666  0.00  0.00    -0.375 OA
HETATM   25  H   UNK     0      -2.241  -0.776 -13.996  0.00  0.00     0.211 HD
ENDBRANCH  16  24
BRANCH  16  26
HETATM   26  C   UNK     0      -0.430  -2.075 -12.381  0.00  0.00     0.018 C 
HETATM   27  C   UNK     0      -0.571  -0.931 -11.695  0.00  0.00    -0.023 C 
BRANCH  27  28
HETATM   28  C   UNK     0       0.082  -0.666 -10.358  0.00  0.00     0.007 C 
HETATM   29  C   UNK     0       0.907  -1.890  -9.947  0.00  0.00     0.014 C 
BRANCH  28  30
HETATM   30  C   UNK     0      -0.920  -0.242  -9.248  0.00  0.00    -0.015 C 
HETATM   31  C   UNK     0      -1.119   1.272  -9.121  0.00  0.00     0.010 C 
HETATM   32  C   UNK     0      -0.529  -0.825  -7.885  0.00  0.00     0.010 C 
ENDBRANCH  28  30
ENDBRANCH  27  28
ENDBRANCH  16  26
BRANCH  22  33
HETATM   33  N   UNK     0      -6.472 -10.705 -14.103  0.00  0.00     0.083 N 
HETATM   34  H   UNK     0      -6.224 -11.587 -14.548  0.00  0.00     0.313 HD
HETATM   35  H   UNK     0      -7.298 -10.357 -14.588  0.00  0.00     0.313 HD
ENDBRANCH  22  33
TORSDOF 5
