REMARK  5 active torsions:
REMARK  status: ('A' for Active; 'I' for Inactive)
REMARK    1  A    between atoms: O_2  and  C_18 
REMARK    2  A    between atoms: N_4  and  C_24 
REMARK    3  A    between atoms: C_18  and  C_26 
REMARK    4  A    between atoms: C_27  and  C_28 
REMARK    5  A    between atoms: C_28  and  C_29 
ROOT
HETATM    1  O   UNK     0       1.990   2.760   0.933  0.00  0.00    -0.313 OA
HETATM    2  O   UNK     0       4.164   2.043   0.978  0.00  0.00    -0.261 OA
HETATM    3  C   UNK     0       0.497   0.656  -0.981  0.00  0.00    -0.030 C 
HETATM    4  C   UNK     0      -0.710   1.638  -1.002  0.00  0.00     0.001 C 
HETATM    5  C   UNK     0      -2.049   1.046  -0.468  0.00  0.00    -0.005 C 
HETATM    6  C   UNK     0      -2.370  -0.338  -1.087  0.00  0.00    -0.002 C 
HETATM    7  C   UNK     0      -3.760  -0.936  -0.623  0.00  0.00    -0.036 C 
HETATM    8  C   UNK     0       0.900   0.693   0.527  0.00  0.00     0.072 C 
HETATM    9  C   UNK     0       0.100  -0.748  -1.467  0.00  0.00     0.010 C 
HETATM   10  C   UNK     0      -0.208   2.799  -0.120  0.00  0.00     0.039 C 
HETATM   11  C   UNK     0       0.692   2.153   0.933  0.00  0.00     0.141 C 
HETATM   12  C   UNK     0      -1.185  -1.293  -0.855  0.00  0.00     0.006 C 
HETATM   13  C   UNK     0      -4.890   0.128  -0.814  0.00  0.00    -0.004 C 
HETATM   14  C   UNK     0      -3.205   2.018  -0.757  0.00  0.00     0.006 C 
HETATM   15  C   UNK     0      -4.523   1.494  -0.213  0.00  0.00     0.006 C 
HETATM   16  C   UNK     0       2.327   0.431   0.999  0.00  0.00     0.169 C 
HETATM   17  C   UNK     0      -3.726  -1.403   0.859  0.00  0.00     0.012 C 
HETATM   18  C   UNK     0       1.590   1.180  -1.947  0.00  0.00     0.016 C 
HETATM   19  C   UNK     0      -6.252  -0.334  -0.251  0.00  0.00     0.040 C 
HETATM   20  C   UNK     0      -4.079  -2.162  -1.525  0.00  0.00     0.016 C 
HETATM   21  C   UNK     0      -5.084  -1.867   1.393  0.00  0.00     0.036 C 
HETATM   22  C   UNK     0      -6.168  -0.804   1.206  0.00  0.00     0.218 C 
HETATM   23  C   UNK     0       2.968   1.799   0.954  0.00  0.00     0.298 C 
ENDROOT
BRANCH  16  24
HETATM   24  O   UNK     0       2.339   0.094   2.388  0.00  0.00    -0.375 OA
HETATM   25  H   UNK     0       1.733   0.687   2.864  0.00  0.00     0.211 HD
ENDBRANCH  16  24
BRANCH  16  26
HETATM   26  C   UNK     0       3.105  -0.617   0.295  0.00  0.00     0.018 C 
HETATM   27  C   UNK     0       4.359  -0.964   0.623  0.00  0.00    -0.023 C 
BRANCH  27  28
HETATM   28  C   UNK     0       5.149  -2.036  -0.092  0.00  0.00     0.007 C 
HETATM   29  C   UNK     0       5.432  -3.188   0.879  0.00  0.00     0.014 C 
BRANCH  28  30
HETATM   30  C   UNK     0       6.449  -1.509  -0.762  0.00  0.00    -0.015 C 
HETATM   31  C   UNK     0       7.465  -0.909   0.216  0.00  0.00     0.010 C 
HETATM   32  C   UNK     0       6.139  -0.493  -1.868  0.00  0.00     0.010 C 
ENDBRANCH  28  30
ENDBRANCH  27  28
ENDBRANCH  16  26
BRANCH  22  33
HETATM   33  N   UNK     0      -7.459  -1.334   1.648  0.00  0.00     0.083 N 
HETATM   34  H   UNK     0      -8.170  -0.608   1.575  0.00  0.00     0.313 HD
HETATM   35  H   UNK     0      -7.406  -1.590   2.633  0.00  0.00     0.313 HD
ENDBRANCH  22  33
TORSDOF 5
