MODEL 1
REMARK VINA RESULT:      -6.5      0.000      0.000
REMARK  15 active torsions:
REMARK  status: ('A' for Active; 'I' for Inactive)
REMARK    1  A    between atoms: O_2  and  C_14 
REMARK    2  A    between atoms: O_2  and  C_19 
REMARK    3  A    between atoms: O_4  and  C_15 
REMARK    4  A    between atoms: O_5  and  C_16 
REMARK    5  A    between atoms: O_6  and  C_17 
REMARK    6  A    between atoms: O_7  and  C_20 
REMARK    7  A    between atoms: O_8  and  C_21 
REMARK    8  A    between atoms: O_9  and  C_22 
REMARK    9  A    between atoms: O_10  and  C_24 
REMARK   10  A    between atoms: O_10  and  C_26 
REMARK   11  A    between atoms: O_12  and  C_32 
REMARK   12  A    between atoms: O_13  and  C_34 
REMARK   13  A    between atoms: C_18  and  C_23 
REMARK   14  A    between atoms: C_26  and  C_27 
REMARK   15  A    between atoms: C_28  and  C_29 
ROOT
HETATM    1  O   UNK     0       0.532   0.626 -11.967  0.00  0.00    -0.351 OA
HETATM    2  C   UNK     0      -0.524   0.856 -12.896  0.00  0.00     0.292 C 
HETATM    3  C   UNK     0      -1.083   2.267 -12.727  0.00  0.00     0.204 C 
HETATM    4  C   UNK     0      -1.504   2.531 -11.283  0.00  0.00     0.183 C 
HETATM    5  C   UNK     0      -0.403   2.123 -10.302  0.00  0.00     0.178 C 
HETATM    6  C   UNK     0       0.097   0.709 -10.609  0.00  0.00     0.155 C 
ENDROOT
BRANCH   2   7
HETATM    7  O   UNK     0      -0.029   0.735 -14.230  0.00  0.00    -0.346 OA
BRANCH   7   8
HETATM    8  C   UNK     0      -0.281  -0.565 -14.762  0.00  0.00     0.211 C 
HETATM    9  C   UNK     0      -1.692  -1.013 -14.370  0.00  0.00     0.185 C 
HETATM   10  C   UNK     0      -1.902  -2.492 -14.688  0.00  0.00     0.205 C 
HETATM   11  C   UNK     0      -0.781  -3.320 -14.061  0.00  0.00     0.304 C 
HETATM   12  O   UNK     0       0.482  -2.876 -14.559  0.00  0.00    -0.326 OA
HETATM   13  C   UNK     0       0.772  -1.525 -14.199  0.00  0.00     0.291 C 
BRANCH   9  14
HETATM   14  O   UNK     0      -2.668  -0.245 -15.067  0.00  0.00    -0.390 OA
HETATM   15  H   UNK     0      -2.942   0.481 -14.481  0.00  0.00     0.210 HD
ENDBRANCH   9  14
BRANCH  10  16
HETATM   16  O   UNK     0      -1.873  -2.670 -16.108  0.00  0.00    -0.388 OA
HETATM   17  H   UNK     0      -1.043  -2.294 -16.447  0.00  0.00     0.210 HD
ENDBRANCH  10  16
BRANCH  11  18
HETATM   18  O   UNK     0      -0.994  -4.691 -14.382  0.00  0.00    -0.283 OA
BRANCH  18  19
HETATM   19  C   UNK     0      -1.107  -5.537 -13.318  0.00  0.00     0.285 C 
HETATM   20  O   UNK     0      -0.528  -5.444 -12.248  0.00  0.00    -0.260 OA
BRANCH  19  21
HETATM   21  C   UNK     0      -2.064  -6.605 -13.689  0.00  0.00     0.083 C 
HETATM   22  C   UNK     0      -2.923  -7.068 -12.770  0.00  0.00     0.017 C 
BRANCH  22  23
HETATM   23  C   UNK     0      -3.915  -8.132 -13.011  0.00  0.00    -0.033 A 
HETATM   24  C   UNK     0      -5.186  -7.807 -13.485  0.00  0.00     0.050 A 
HETATM   25  C   UNK     0      -6.123  -8.815 -13.715  0.00  0.00     0.099 A 
HETATM   26  C   UNK     0      -5.788 -10.147 -13.472  0.00  0.00     0.098 A 
HETATM   27  C   UNK     0      -4.517 -10.472 -12.998  0.00  0.00     0.040 A 
HETATM   28  C   UNK     0      -3.580  -9.464 -12.768  0.00  0.00     0.014 A 
BRANCH  25  29
HETATM   29  O   UNK     0      -7.361  -8.485 -14.177  0.00  0.00    -0.358 OA
HETATM   30  H   UNK     0      -7.634  -7.642 -13.779  0.00  0.00     0.217 HD
ENDBRANCH  25  29
BRANCH  26  31
HETATM   31  O   UNK     0      -6.695 -11.139 -13.691  0.00  0.00    -0.358 OA
HETATM   32  H   UNK     0      -6.653 -11.775 -12.956  0.00  0.00     0.217 HD
ENDBRANCH  26  31
ENDBRANCH  22  23
ENDBRANCH  19  21
ENDBRANCH  18  19
ENDBRANCH  11  18
BRANCH  13  33
HETATM   33  O   UNK     0       2.041  -1.145 -14.733  0.00  0.00    -0.368 OA
HETATM   34  H   UNK     0       1.997  -0.192 -14.922  0.00  0.00     0.212 HD
ENDBRANCH  13  33
ENDBRANCH   7   8
ENDBRANCH   2   7
BRANCH   6  35
HETATM   35  C   UNK     0       1.278   0.323  -9.723  0.00  0.00     0.030 C 
HETATM   36  C   UNK     0       1.174  -1.119  -9.260  0.00  0.00     0.007 C 
ENDBRANCH   6  35
BRANCH   3  37
HETATM   37  O   UNK     0      -2.219   2.411 -13.580  0.00  0.00    -0.388 OA
HETATM   38  H   UNK     0      -2.046   3.148 -14.191  0.00  0.00     0.210 HD
ENDBRANCH   3  37
BRANCH   5  39
HETATM   39  O   UNK     0      -0.914   2.156  -8.972  0.00  0.00    -0.390 OA
HETATM   40  H   UNK     0      -0.285   2.651  -8.420  0.00  0.00     0.210 HD
ENDBRANCH   5  39
BRANCH   4  41
HETATM   41  O   UNK     0      -1.768   3.929 -11.149  0.00  0.00    -0.390 OA
HETATM   42  H   UNK     0      -1.429   4.378 -11.942  0.00  0.00     0.210 HD
ENDBRANCH   4  41
TORSDOF 15
ENDMDL
MODEL 2
REMARK VINA RESULT:      -6.4      4.185      8.228
REMARK  15 active torsions:
REMARK  status: ('A' for Active; 'I' for Inactive)
REMARK    1  A    between atoms: O_2  and  C_14 
REMARK    2  A    between atoms: O_2  and  C_19 
REMARK    3  A    between atoms: O_4  and  C_15 
REMARK    4  A    between atoms: O_5  and  C_16 
REMARK    5  A    between atoms: O_6  and  C_17 
REMARK    6  A    between atoms: O_7  and  C_20 
REMARK    7  A    between atoms: O_8  and  C_21 
REMARK    8  A    between atoms: O_9  and  C_22 
REMARK    9  A    between atoms: O_10  and  C_24 
REMARK   10  A    between atoms: O_10  and  C_26 
REMARK   11  A    between atoms: O_12  and  C_32 
REMARK   12  A    between atoms: O_13  and  C_34 
REMARK   13  A    between atoms: C_18  and  C_23 
REMARK   14  A    between atoms: C_26  and  C_27 
REMARK   15  A    between atoms: C_28  and  C_29 
ROOT
HETATM    1  O   UNK     0      -0.755  -1.350 -15.381  0.00  0.00    -0.351 OA
HETATM    2  C   UNK     0      -0.031  -0.158 -15.091  0.00  0.00     0.292 C 
HETATM    3  C   UNK     0       1.469  -0.445 -15.047  0.00  0.00     0.204 C 
HETATM    4  C   UNK     0       1.791  -1.579 -14.075  0.00  0.00     0.183 C 
HETATM    5  C   UNK     0       0.883  -2.786 -14.313  0.00  0.00     0.178 C 
HETATM    6  C   UNK     0      -0.584  -2.354 -14.379  0.00  0.00     0.155 C 
ENDROOT
BRANCH   2   7
HETATM    7  O   UNK     0      -0.264   0.810 -16.114  0.00  0.00    -0.346 OA
BRANCH   7   8
HETATM    8  C   UNK     0      -0.935   1.960 -15.600  0.00  0.00     0.211 C 
HETATM    9  C   UNK     0       0.097   3.019 -15.204  0.00  0.00     0.185 C 
HETATM   10  C   UNK     0      -0.557   4.147 -14.409  0.00  0.00     0.205 C 
HETATM   11  C   UNK     0      -1.343   3.563 -13.235  0.00  0.00     0.304 C 
HETATM   12  O   UNK     0      -2.332   2.655 -13.722  0.00  0.00    -0.326 OA
HETATM   13  C   UNK     0      -1.764   1.527 -14.387  0.00  0.00     0.291 C 
BRANCH   9  14
HETATM   14  O   UNK     0       0.716   3.568 -16.364  0.00  0.00    -0.390 OA
HETATM   15  H   UNK     0       1.310   2.889 -16.728  0.00  0.00     0.210 HD
ENDBRANCH   9  14
BRANCH  10  16
HETATM   16  O   UNK     0      -1.459   4.856 -15.265  0.00  0.00    -0.388 OA
HETATM   17  H   UNK     0      -1.697   4.275 -16.007  0.00  0.00     0.210 HD
ENDBRANCH  10  16
BRANCH  11  18
HETATM   18  O   UNK     0      -1.952   4.633 -12.518  0.00  0.00    -0.283 OA
BRANCH  18  19
HETATM   19  C   UNK     0      -1.728   4.647 -11.174  0.00  0.00     0.285 C 
HETATM   20  O   UNK     0      -2.147   5.468 -10.374  0.00  0.00    -0.260 OA
BRANCH  19  21
HETATM   21  C   UNK     0      -0.876   3.481 -10.843  0.00  0.00     0.083 C 
HETATM   22  C   UNK     0      -1.416   2.426 -10.217  0.00  0.00     0.017 C 
BRANCH  22  23
HETATM   23  C   UNK     0      -0.674   1.213  -9.828  0.00  0.00    -0.033 A 
HETATM   24  C   UNK     0      -1.018   0.528  -8.663  0.00  0.00     0.050 A 
HETATM   25  C   UNK     0      -0.316  -0.621  -8.297  0.00  0.00     0.099 A 
HETATM   26  C   UNK     0       0.729  -1.084  -9.097  0.00  0.00     0.098 A 
HETATM   27  C   UNK     0       1.073  -0.398 -10.261  0.00  0.00     0.040 A 
HETATM   28  C   UNK     0       0.372   0.751 -10.627  0.00  0.00     0.014 A 
BRANCH  25  29
HETATM   29  O   UNK     0      -0.661  -1.282  -7.157  0.00  0.00    -0.358 OA
HETATM   30  H   UNK     0       0.007  -1.107  -6.474  0.00  0.00     0.217 HD
ENDBRANCH  25  29
BRANCH  26  31
HETATM   31  O   UNK     0       1.422  -2.203  -8.749  0.00  0.00    -0.358 OA
HETATM   32  H   UNK     0       2.143  -2.342  -9.388  0.00  0.00     0.217 HD
ENDBRANCH  26  31
ENDBRANCH  22  23
ENDBRANCH  19  21
ENDBRANCH  18  19
ENDBRANCH  11  18
BRANCH  13  33
HETATM   33  O   UNK     0      -2.805   0.667 -14.853  0.00  0.00    -0.368 OA
HETATM   34  H   UNK     0      -3.649   1.098 -14.637  0.00  0.00     0.212 HD
ENDBRANCH  13  33
ENDBRANCH   7   8
ENDBRANCH   2   7
BRANCH   6  35
HETATM   35  C   UNK     0      -1.501  -3.520 -14.736  0.00  0.00     0.030 C 
HETATM   36  C   UNK     0      -1.161  -4.097 -16.097  0.00  0.00     0.007 C 
ENDBRANCH   6  35
BRANCH   3  37
HETATM   37  O   UNK     0       2.147   0.739 -14.626  0.00  0.00    -0.388 OA
HETATM   38  H   UNK     0       2.805   0.967 -15.304  0.00  0.00     0.210 HD
ENDBRANCH   3  37
BRANCH   5  39
HETATM   39  O   UNK     0       1.043  -3.720 -13.249  0.00  0.00    -0.390 OA
HETATM   40  H   UNK     0       0.196  -4.180 -13.121  0.00  0.00     0.210 HD
ENDBRANCH   5  39
BRANCH   4  41
HETATM   41  O   UNK     0       3.153  -1.959 -14.277  0.00  0.00    -0.390 OA
HETATM   42  H   UNK     0       3.633  -1.819 -13.444  0.00  0.00     0.210 HD
ENDBRANCH   4  41
TORSDOF 15
ENDMDL
MODEL 3
REMARK VINA RESULT:      -6.2      3.933      5.994
REMARK  15 active torsions:
REMARK  status: ('A' for Active; 'I' for Inactive)
REMARK    1  A    between atoms: O_2  and  C_14 
REMARK    2  A    between atoms: O_2  and  C_19 
REMARK    3  A    between atoms: O_4  and  C_15 
REMARK    4  A    between atoms: O_5  and  C_16 
REMARK    5  A    between atoms: O_6  and  C_17 
REMARK    6  A    between atoms: O_7  and  C_20 
REMARK    7  A    between atoms: O_8  and  C_21 
REMARK    8  A    between atoms: O_9  and  C_22 
REMARK    9  A    between atoms: O_10  and  C_24 
REMARK   10  A    between atoms: O_10  and  C_26 
REMARK   11  A    between atoms: O_12  and  C_32 
REMARK   12  A    between atoms: O_13  and  C_34 
REMARK   13  A    between atoms: C_18  and  C_23 
REMARK   14  A    between atoms: C_26  and  C_27 
REMARK   15  A    between atoms: C_28  and  C_29 
ROOT
HETATM    1  O   UNK     0       0.575   2.606 -11.391  0.00  0.00    -0.351 OA
HETATM    2  C   UNK     0      -0.330   3.079 -12.385  0.00  0.00     0.292 C 
HETATM    3  C   UNK     0      -0.633   4.560 -12.166  0.00  0.00     0.204 C 
HETATM    4  C   UNK     0      -1.131   4.823 -10.745  0.00  0.00     0.183 C 
HETATM    5  C   UNK     0      -0.219   4.164  -9.709  0.00  0.00     0.178 C 
HETATM    6  C   UNK     0       0.039   2.699 -10.071  0.00  0.00     0.155 C 
ENDROOT
BRANCH   2   7
HETATM    7  O   UNK     0       0.255   2.937 -13.679  0.00  0.00    -0.346 OA
BRANCH   7   8
HETATM    8  C   UNK     0      -0.268   1.800 -14.365  0.00  0.00     0.211 C 
HETATM    9  C   UNK     0      -1.697   1.528 -13.885  0.00  0.00     0.185 C 
HETATM   10  C   UNK     0      -2.193   0.175 -14.391  0.00  0.00     0.205 C 
HETATM   11  C   UNK     0      -1.186  -0.915 -14.025  0.00  0.00     0.304 C 
HETATM   12  O   UNK     0       0.087  -0.604 -14.593  0.00  0.00    -0.326 OA
HETATM   13  C   UNK     0       0.643   0.603 -14.073  0.00  0.00     0.291 C 
BRANCH   9  14
HETATM   14  O   UNK     0      -2.578   2.548 -14.345  0.00  0.00    -0.390 OA
HETATM   15  H   UNK     0      -2.049   3.352 -14.483  0.00  0.00     0.210 HD
ENDBRANCH   9  14
BRANCH  10  16
HETATM   16  O   UNK     0      -2.319   0.231 -15.816  0.00  0.00    -0.388 OA
HETATM   17  H   UNK     0      -3.250   0.403 -16.035  0.00  0.00     0.210 HD
ENDBRANCH  10  16
BRANCH  11  18
HETATM   18  O   UNK     0      -1.666  -2.162 -14.518  0.00  0.00    -0.283 OA
BRANCH  18  19
HETATM   19  C   UNK     0      -1.173  -3.272 -13.899  0.00  0.00     0.285 C 
HETATM   20  O   UNK     0      -1.285  -4.427 -14.276  0.00  0.00    -0.260 OA
BRANCH  19  21
HETATM   21  C   UNK     0      -0.468  -2.832 -12.672  0.00  0.00     0.083 C 
HETATM   22  C   UNK     0       0.651  -3.464 -12.292  0.00  0.00     0.017 C 
BRANCH  22  23
HETATM   23  C   UNK     0       1.436  -3.128 -11.090  0.00  0.00    -0.033 A 
HETATM   24  C   UNK     0       2.211  -4.105 -10.466  0.00  0.00     0.050 A 
HETATM   25  C   UNK     0       2.955  -3.784  -9.331  0.00  0.00     0.099 A 
HETATM   26  C   UNK     0       2.924  -2.486  -8.820  0.00  0.00     0.098 A 
HETATM   27  C   UNK     0       2.149  -1.509  -9.444  0.00  0.00     0.040 A 
HETATM   28  C   UNK     0       1.405  -1.830 -10.580  0.00  0.00     0.014 A 
BRANCH  25  29
HETATM   29  O   UNK     0       3.708  -4.747  -8.729  0.00  0.00    -0.358 OA
HETATM   30  H   UNK     0       4.593  -4.390  -8.546  0.00  0.00     0.217 HD
ENDBRANCH  25  29
BRANCH  26  31
HETATM   31  O   UNK     0       3.645  -2.162  -7.711  0.00  0.00    -0.358 OA
HETATM   32  H   UNK     0       4.453  -1.695  -7.984  0.00  0.00     0.217 HD
ENDBRANCH  26  31
ENDBRANCH  22  23
ENDBRANCH  19  21
ENDBRANCH  18  19
ENDBRANCH  11  18
BRANCH  13  33
HETATM   33  O   UNK     0       1.907   0.856 -14.687  0.00  0.00    -0.368 OA
HETATM   34  H   UNK     0       1.731   1.128 -15.603  0.00  0.00     0.212 HD
ENDBRANCH  13  33
ENDBRANCH   7   8
ENDBRANCH   2   7
BRANCH   6  35
HETATM   35  C   UNK     0       1.041   2.050  -9.121  0.00  0.00     0.030 C 
HETATM   36  C   UNK     0       2.467   2.432  -9.474  0.00  0.00     0.007 C 
ENDBRANCH   6  35
BRANCH   3  37
HETATM   37  O   UNK     0      -1.639   4.961 -13.096  0.00  0.00    -0.388 OA
HETATM   38  H   UNK     0      -1.205   5.441 -13.822  0.00  0.00     0.210 HD
ENDBRANCH   3  37
BRANCH   5  39
HETATM   39  O   UNK     0      -0.836   4.223  -8.426  0.00  0.00    -0.390 OA
HETATM   40  H   UNK     0      -1.162   3.333  -8.207  0.00  0.00     0.210 HD
ENDBRANCH   5  39
BRANCH   4  41
HETATM   41  O   UNK     0      -1.145   6.236 -10.538  0.00  0.00    -0.390 OA
HETATM   42  H   UNK     0      -1.267   6.667 -11.401  0.00  0.00     0.210 HD
ENDBRANCH   4  41
TORSDOF 15
ENDMDL
MODEL 4
REMARK VINA RESULT:      -6.2      4.749      7.719
REMARK  15 active torsions:
REMARK  status: ('A' for Active; 'I' for Inactive)
REMARK    1  A    between atoms: O_2  and  C_14 
REMARK    2  A    between atoms: O_2  and  C_19 
REMARK    3  A    between atoms: O_4  and  C_15 
REMARK    4  A    between atoms: O_5  and  C_16 
REMARK    5  A    between atoms: O_6  and  C_17 
REMARK    6  A    between atoms: O_7  and  C_20 
REMARK    7  A    between atoms: O_8  and  C_21 
REMARK    8  A    between atoms: O_9  and  C_22 
REMARK    9  A    between atoms: O_10  and  C_24 
REMARK   10  A    between atoms: O_10  and  C_26 
REMARK   11  A    between atoms: O_12  and  C_32 
REMARK   12  A    between atoms: O_13  and  C_34 
REMARK   13  A    between atoms: C_18  and  C_23 
REMARK   14  A    between atoms: C_26  and  C_27 
REMARK   15  A    between atoms: C_28  and  C_29 
ROOT
HETATM    1  O   UNK     0       1.130   0.380  -9.584  0.00  0.00    -0.351 OA
HETATM    2  C   UNK     0       2.168   0.659 -10.520  0.00  0.00     0.292 C 
HETATM    3  C   UNK     0       3.034   1.815 -10.026  0.00  0.00     0.204 C 
HETATM    4  C   UNK     0       2.188   3.046  -9.702  0.00  0.00     0.183 C 
HETATM    5  C   UNK     0       0.991   2.680  -8.823  0.00  0.00     0.178 C 
HETATM    6  C   UNK     0       0.238   1.481  -9.408  0.00  0.00     0.155 C 
ENDROOT
BRANCH   2   7
HETATM    7  O   UNK     0       3.007  -0.487 -10.667  0.00  0.00    -0.346 OA
BRANCH   7   8
HETATM    8  C   UNK     0       2.610  -1.282 -11.785  0.00  0.00     0.211 C 
HETATM    9  C   UNK     0       2.558  -0.407 -13.040  0.00  0.00     0.185 C 
HETATM   10  C   UNK     0       1.887  -1.149 -14.194  0.00  0.00     0.205 C 
HETATM   11  C   UNK     0       0.529  -1.686 -13.742  0.00  0.00     0.304 C 
HETATM   12  O   UNK     0       0.703  -2.555 -12.622  0.00  0.00    -0.326 OA
HETATM   13  C   UNK     0       1.234  -1.883 -11.480  0.00  0.00     0.291 C 
BRANCH   9  14
HETATM   14  O   UNK     0       3.872  -0.026 -13.436  0.00  0.00    -0.390 OA
HETATM   15  H   UNK     0       3.819   0.874 -13.801  0.00  0.00     0.210 HD
ENDBRANCH   9  14
BRANCH  10  16
HETATM   16  O   UNK     0       2.715  -2.250 -14.582  0.00  0.00    -0.388 OA
HETATM   17  H   UNK     0       2.277  -3.074 -14.313  0.00  0.00     0.210 HD
ENDBRANCH  10  16
BRANCH  11  18
HETATM   18  O   UNK     0      -0.070  -2.384 -14.831  0.00  0.00    -0.283 OA
BRANCH  18  19
HETATM   19  C   UNK     0      -1.228  -1.848 -15.311  0.00  0.00     0.285 C 
HETATM   20  O   UNK     0      -1.969  -2.344 -16.143  0.00  0.00    -0.260 OA
BRANCH  19  21
HETATM   21  C   UNK     0      -1.435  -0.542 -14.643  0.00  0.00     0.083 C 
HETATM   22  C   UNK     0      -1.072   0.585 -15.271  0.00  0.00     0.017 C 
BRANCH  22  23
HETATM   23  C   UNK     0      -1.218   1.940 -14.711  0.00  0.00    -0.033 A 
HETATM   24  C   UNK     0      -1.375   2.114 -13.336  0.00  0.00     0.050 A 
HETATM   25  C   UNK     0      -1.510   3.398 -12.807  0.00  0.00     0.099 A 
HETATM   26  C   UNK     0      -1.488   4.507 -13.653  0.00  0.00     0.098 A 
HETATM   27  C   UNK     0      -1.331   4.333 -15.027  0.00  0.00     0.040 A 
HETATM   28  C   UNK     0      -1.195   3.049 -15.557  0.00  0.00     0.014 A 
BRANCH  25  29
HETATM   29  O   UNK     0      -1.664   3.555 -11.463  0.00  0.00    -0.358 OA
HETATM   30  H   UNK     0      -2.063   4.424 -11.288  0.00  0.00     0.217 HD
ENDBRANCH  25  29
BRANCH  26  31
HETATM   31  O   UNK     0      -1.621   5.765 -13.148  0.00  0.00    -0.358 OA
HETATM   32  H   UNK     0      -0.746   6.090 -12.873  0.00  0.00     0.217 HD
ENDBRANCH  26  31
ENDBRANCH  22  23
ENDBRANCH  19  21
ENDBRANCH  18  19
ENDBRANCH  11  18
BRANCH  13  33
HETATM   33  O   UNK     0       1.390  -2.808 -10.404  0.00  0.00    -0.368 OA
HETATM   34  H   UNK     0       2.342  -2.877 -10.222  0.00  0.00     0.212 HD
ENDBRANCH  13  33
ENDBRANCH   7   8
ENDBRANCH   2   7
BRANCH   6  35
HETATM   35  C   UNK     0      -0.888   1.019  -8.489  0.00  0.00     0.030 C 
HETATM   36  C   UNK     0      -0.726  -0.440  -8.104  0.00  0.00     0.007 C 
ENDBRANCH   6  35
BRANCH   3  37
HETATM   37  O   UNK     0       3.974   2.149 -11.046  0.00  0.00    -0.388 OA
HETATM   38  H   UNK     0       3.973   3.115 -11.154  0.00  0.00     0.210 HD
ENDBRANCH   3  37
BRANCH   5  39
HETATM   39  O   UNK     0       0.102   3.791  -8.742  0.00  0.00    -0.390 OA
HETATM   40  H   UNK     0      -0.509   3.743  -9.496  0.00  0.00     0.210 HD
ENDBRANCH   5  39
BRANCH   4  41
HETATM   41  O   UNK     0       3.017   3.982  -9.012  0.00  0.00    -0.390 OA
HETATM   42  H   UNK     0       3.396   3.536  -8.236  0.00  0.00     0.210 HD
ENDBRANCH   4  41
TORSDOF 15
ENDMDL
MODEL 5
REMARK VINA RESULT:      -6.0      4.747      8.111
REMARK  15 active torsions:
REMARK  status: ('A' for Active; 'I' for Inactive)
REMARK    1  A    between atoms: O_2  and  C_14 
REMARK    2  A    between atoms: O_2  and  C_19 
REMARK    3  A    between atoms: O_4  and  C_15 
REMARK    4  A    between atoms: O_5  and  C_16 
REMARK    5  A    between atoms: O_6  and  C_17 
REMARK    6  A    between atoms: O_7  and  C_20 
REMARK    7  A    between atoms: O_8  and  C_21 
REMARK    8  A    between atoms: O_9  and  C_22 
REMARK    9  A    between atoms: O_10  and  C_24 
REMARK   10  A    between atoms: O_10  and  C_26 
REMARK   11  A    between atoms: O_12  and  C_32 
REMARK   12  A    between atoms: O_13  and  C_34 
REMARK   13  A    between atoms: C_18  and  C_23 
REMARK   14  A    between atoms: C_26  and  C_27 
REMARK   15  A    between atoms: C_28  and  C_29 
ROOT
HETATM    1  O   UNK     0       0.204   2.189  -9.315  0.00  0.00    -0.351 OA
HETATM    2  C   UNK     0       1.100   1.460 -10.149  0.00  0.00     0.292 C 
HETATM    3  C   UNK     0       2.450   2.170 -10.227  0.00  0.00     0.204 C 
HETATM    4  C   UNK     0       2.290   3.625 -10.667  0.00  0.00     0.183 C 
HETATM    5  C   UNK     0       1.206   4.333  -9.853  0.00  0.00     0.178 C 
HETATM    6  C   UNK     0      -0.076   3.496  -9.819  0.00  0.00     0.155 C 
ENDROOT
BRANCH   2   7
HETATM    7  O   UNK     0       1.318   0.159  -9.604  0.00  0.00    -0.346 OA
BRANCH   7   8
HETATM    8  C   UNK     0       0.629  -0.841 -10.353  0.00  0.00     0.211 C 
HETATM    9  C   UNK     0       1.314  -1.026 -11.709  0.00  0.00     0.185 C 
HETATM   10  C   UNK     0       0.460  -1.886 -12.639  0.00  0.00     0.205 C 
HETATM   11  C   UNK     0      -0.953  -1.310 -12.720  0.00  0.00     0.304 C 
HETATM   12  O   UNK     0      -1.529  -1.261 -11.414  0.00  0.00    -0.326 OA
HETATM   13  C   UNK     0      -0.824  -0.388 -10.533  0.00  0.00     0.291 C 
BRANCH   9  14
HETATM   14  O   UNK     0       2.586  -1.646 -11.543  0.00  0.00    -0.390 OA
HETATM   15  H   UNK     0       3.150  -1.029 -11.045  0.00  0.00     0.210 HD
ENDBRANCH   9  14
BRANCH  10  16
HETATM   16  O   UNK     0       0.391  -3.214 -12.110  0.00  0.00    -0.388 OA
HETATM   17  H   UNK     0       0.932  -3.251 -11.304  0.00  0.00     0.210 HD
ENDBRANCH  10  16
BRANCH  11  18
HETATM   18  O   UNK     0      -1.732  -2.135 -13.582  0.00  0.00    -0.283 OA
BRANCH  18  19
HETATM   19  C   UNK     0      -1.926  -1.656 -14.843  0.00  0.00     0.285 C 
HETATM   20  O   UNK     0      -1.920  -2.303 -15.878  0.00  0.00    -0.260 OA
BRANCH  19  21
HETATM   21  C   UNK     0      -2.148  -0.195 -14.744  0.00  0.00     0.083 C 
HETATM   22  C   UNK     0      -1.248   0.647 -15.273  0.00  0.00     0.017 C 
BRANCH  22  23
HETATM   23  C   UNK     0      -1.351   2.116 -15.232  0.00  0.00    -0.033 A 
HETATM   24  C   UNK     0      -1.068   2.803 -14.052  0.00  0.00     0.050 A 
HETATM   25  C   UNK     0      -1.163   4.195 -14.015  0.00  0.00     0.099 A 
HETATM   26  C   UNK     0      -1.540   4.898 -15.159  0.00  0.00     0.098 A 
HETATM   27  C   UNK     0      -1.822   4.211 -16.339  0.00  0.00     0.040 A 
HETATM   28  C   UNK     0      -1.727   2.820 -16.376  0.00  0.00     0.014 A 
BRANCH  25  29
HETATM   29  O   UNK     0      -0.886   4.855 -12.856  0.00  0.00    -0.358 OA
HETATM   30  H   UNK     0      -1.592   5.499 -12.680  0.00  0.00     0.217 HD
ENDBRANCH  25  29
BRANCH  26  31
HETATM   31  O   UNK     0      -1.638   6.257 -15.135  0.00  0.00    -0.358 OA
HETATM   32  H   UNK     0      -0.743   6.639 -15.154  0.00  0.00     0.217 HD
ENDBRANCH  26  31
ENDBRANCH  22  23
ENDBRANCH  19  21
ENDBRANCH  18  19
ENDBRANCH  11  18
BRANCH  13  33
HETATM   33  O   UNK     0      -1.446  -0.392  -9.248  0.00  0.00    -0.368 OA
HETATM   34  H   UNK     0      -0.735  -0.442  -8.587  0.00  0.00     0.212 HD
ENDBRANCH  13  33
ENDBRANCH   7   8
ENDBRANCH   2   7
BRANCH   6  35
HETATM   35  C   UNK     0      -1.135   4.121  -8.915  0.00  0.00     0.030 C 
HETATM   36  C   UNK     0      -2.425   4.382  -9.671  0.00  0.00     0.007 C 
ENDBRANCH   6  35
BRANCH   3  37
HETATM   37  O   UNK     0       3.272   1.483 -11.171  0.00  0.00    -0.388 OA
HETATM   38  H   UNK     0       3.084   1.845 -12.054  0.00  0.00     0.210 HD
ENDBRANCH   3  37
BRANCH   5  39
HETATM   39  O   UNK     0       0.918   5.598 -10.443  0.00  0.00    -0.390 OA
HETATM   40  H   UNK     0       1.245   6.291  -9.845  0.00  0.00     0.210 HD
ENDBRANCH   5  39
BRANCH   4  41
HETATM   41  O   UNK     0       3.542   4.285 -10.469  0.00  0.00    -0.390 OA
HETATM   42  H   UNK     0       4.107   3.706  -9.929  0.00  0.00     0.210 HD
ENDBRANCH   4  41
TORSDOF 15
ENDMDL
MODEL 6
REMARK VINA RESULT:      -5.9      2.885      9.835
REMARK  15 active torsions:
REMARK  status: ('A' for Active; 'I' for Inactive)
REMARK    1  A    between atoms: O_2  and  C_14 
REMARK    2  A    between atoms: O_2  and  C_19 
REMARK    3  A    between atoms: O_4  and  C_15 
REMARK    4  A    between atoms: O_5  and  C_16 
REMARK    5  A    between atoms: O_6  and  C_17 
REMARK    6  A    between atoms: O_7  and  C_20 
REMARK    7  A    between atoms: O_8  and  C_21 
REMARK    8  A    between atoms: O_9  and  C_22 
REMARK    9  A    between atoms: O_10  and  C_24 
REMARK   10  A    between atoms: O_10  and  C_26 
REMARK   11  A    between atoms: O_12  and  C_32 
REMARK   12  A    between atoms: O_13  and  C_34 
REMARK   13  A    between atoms: C_18  and  C_23 
REMARK   14  A    between atoms: C_26  and  C_27 
REMARK   15  A    between atoms: C_28  and  C_29 
ROOT
HETATM    1  O   UNK     0      -0.785  -5.201 -13.354  0.00  0.00    -0.351 OA
HETATM    2  C   UNK     0       0.350  -4.521 -13.884  0.00  0.00     0.292 C 
HETATM    3  C   UNK     0       1.180  -5.468 -14.748  0.00  0.00     0.204 C 
HETATM    4  C   UNK     0       1.560  -6.734 -13.982  0.00  0.00     0.183 C 
HETATM    5  C   UNK     0       0.341  -7.350 -13.292  0.00  0.00     0.178 C 
HETATM    6  C   UNK     0      -0.424  -6.287 -12.499  0.00  0.00     0.155 C 
ENDROOT
BRANCH   2   7
HETATM    7  O   UNK     0      -0.078  -3.436 -14.707  0.00  0.00    -0.346 OA
BRANCH   7   8
HETATM    8  C   UNK     0      -0.002  -2.193 -14.009  0.00  0.00     0.211 C 
HETATM    9  C   UNK     0       1.418  -1.994 -13.472  0.00  0.00     0.185 C 
HETATM   10  C   UNK     0       1.474  -0.817 -12.501  0.00  0.00     0.205 C 
HETATM   11  C   UNK     0       0.409  -0.990 -11.419  0.00  0.00     0.304 C 
HETATM   12  O   UNK     0      -0.882  -1.079 -12.023  0.00  0.00    -0.326 OA
HETATM   13  C   UNK     0      -1.019  -2.225 -12.863  0.00  0.00     0.291 C 
BRANCH   9  14
HETATM   14  O   UNK     0       2.325  -1.756 -14.544  0.00  0.00    -0.390 OA
HETATM   15  H   UNK     0       3.060  -2.386 -14.452  0.00  0.00     0.210 HD
ENDBRANCH   9  14
BRANCH  10  16
HETATM   16  O   UNK     0       1.212   0.392 -13.222  0.00  0.00    -0.388 OA
HETATM   17  H   UNK     0       1.667   0.342 -14.079  0.00  0.00     0.210 HD
ENDBRANCH  10  16
BRANCH  11  18
HETATM   18  O   UNK     0       0.474   0.125 -10.534  0.00  0.00    -0.283 OA
BRANCH  18  19
HETATM   19  C   UNK     0      -0.387   0.094  -9.478  0.00  0.00     0.285 C 
HETATM   20  O   UNK     0      -0.656  -0.874  -8.785  0.00  0.00    -0.260 OA
BRANCH  19  21
HETATM   21  C   UNK     0      -0.952   1.454  -9.313  0.00  0.00     0.083 C 
HETATM   22  C   UNK     0      -1.077   2.251 -10.384  0.00  0.00     0.017 C 
BRANCH  22  23
HETATM   23  C   UNK     0      -1.613   3.623 -10.348  0.00  0.00    -0.033 A 
HETATM   24  C   UNK     0      -2.292   4.079  -9.219  0.00  0.00     0.050 A 
HETATM   25  C   UNK     0      -2.797   5.379  -9.186  0.00  0.00     0.099 A 
HETATM   26  C   UNK     0      -2.622   6.223 -10.284  0.00  0.00     0.098 A 
HETATM   27  C   UNK     0      -1.943   5.767 -11.413  0.00  0.00     0.040 A 
HETATM   28  C   UNK     0      -1.438   4.467 -11.446  0.00  0.00     0.014 A 
BRANCH  25  29
HETATM   29  O   UNK     0      -3.459   5.812  -8.078  0.00  0.00    -0.358 OA
HETATM   30  H   UNK     0      -4.389   5.976  -8.307  0.00  0.00     0.217 HD
ENDBRANCH  25  29
BRANCH  26  31
HETATM   31  O   UNK     0      -3.112   7.493 -10.264  0.00  0.00    -0.358 OA
HETATM   32  H   UNK     0      -2.890   7.932 -11.103  0.00  0.00     0.217 HD
ENDBRANCH  26  31
ENDBRANCH  22  23
ENDBRANCH  19  21
ENDBRANCH  18  19
ENDBRANCH  11  18
BRANCH  13  33
HETATM   33  O   UNK     0      -2.326  -2.248 -13.439  0.00  0.00    -0.368 OA
HETATM   34  H   UNK     0      -2.721  -1.372 -13.286  0.00  0.00     0.212 HD
ENDBRANCH  13  33
ENDBRANCH   7   8
ENDBRANCH   2   7
BRANCH   6  35
HETATM   35  C   UNK     0      -1.711  -6.847 -11.900  0.00  0.00     0.030 C 
HETATM   36  C   UNK     0      -2.733  -7.161 -12.976  0.00  0.00     0.007 C 
ENDBRANCH   6  35
BRANCH   3  37
HETATM   37  O   UNK     0       2.371  -4.790 -15.151  0.00  0.00    -0.388 OA
HETATM   38  H   UNK     0       2.120  -4.085 -15.772  0.00  0.00     0.210 HD
ENDBRANCH   3  37
BRANCH   5  39
HETATM   39  O   UNK     0       0.766  -8.377 -12.401  0.00  0.00    -0.390 OA
HETATM   40  H   UNK     0       0.077  -8.494 -11.726  0.00  0.00     0.210 HD
ENDBRANCH   5  39
BRANCH   4  41
HETATM   41  O   UNK     0       2.102  -7.669 -14.916  0.00  0.00    -0.390 OA
HETATM   42  H   UNK     0       2.825  -7.231 -15.397  0.00  0.00     0.210 HD
ENDBRANCH   4  41
TORSDOF 15
ENDMDL
MODEL 7
REMARK VINA RESULT:      -5.9      1.990      3.073
REMARK  15 active torsions:
REMARK  status: ('A' for Active; 'I' for Inactive)
REMARK    1  A    between atoms: O_2  and  C_14 
REMARK    2  A    between atoms: O_2  and  C_19 
REMARK    3  A    between atoms: O_4  and  C_15 
REMARK    4  A    between atoms: O_5  and  C_16 
REMARK    5  A    between atoms: O_6  and  C_17 
REMARK    6  A    between atoms: O_7  and  C_20 
REMARK    7  A    between atoms: O_8  and  C_21 
REMARK    8  A    between atoms: O_9  and  C_22 
REMARK    9  A    between atoms: O_10  and  C_24 
REMARK   10  A    between atoms: O_10  and  C_26 
REMARK   11  A    between atoms: O_12  and  C_32 
REMARK   12  A    between atoms: O_13  and  C_34 
REMARK   13  A    between atoms: C_18  and  C_23 
REMARK   14  A    between atoms: C_26  and  C_27 
REMARK   15  A    between atoms: C_28  and  C_29 
ROOT
HETATM    1  O   UNK     0       0.052   2.236 -12.052  0.00  0.00    -0.351 OA
HETATM    2  C   UNK     0       1.085   2.197 -11.071  0.00  0.00     0.292 C 
HETATM    3  C   UNK     0       0.541   2.623  -9.709  0.00  0.00     0.204 C 
HETATM    4  C   UNK     0      -0.146   3.985  -9.784  0.00  0.00     0.183 C 
HETATM    5  C   UNK     0      -1.135   4.043 -10.950  0.00  0.00     0.178 C 
HETATM    6  C   UNK     0      -0.476   3.549 -12.241  0.00  0.00     0.155 C 
ENDROOT
BRANCH   2   7
HETATM    7  O   UNK     0       1.586   0.866 -10.949  0.00  0.00    -0.346 OA
BRANCH   7   8
HETATM    8  C   UNK     0       0.898  -0.031 -11.821  0.00  0.00     0.211 C 
HETATM    9  C   UNK     0       0.055  -1.004 -10.992  0.00  0.00     0.185 C 
HETATM   10  C   UNK     0      -0.481  -2.138 -11.862  0.00  0.00     0.205 C 
HETATM   11  C   UNK     0       0.670  -2.793 -12.624  0.00  0.00     0.304 C 
HETATM   12  O   UNK     0       1.333  -1.816 -13.428  0.00  0.00    -0.326 OA
HETATM   13  C   UNK     0       1.941  -0.784 -12.652  0.00  0.00     0.291 C 
BRANCH   9  14
HETATM   14  O   UNK     0      -1.041  -0.323 -10.389  0.00  0.00    -0.390 OA
HETATM   15  H   UNK     0      -0.929  -0.382  -9.425  0.00  0.00     0.210 HD
ENDBRANCH   9  14
BRANCH  10  16
HETATM   16  O   UNK     0      -1.415  -1.599 -12.803  0.00  0.00    -0.388 OA
HETATM   17  H   UNK     0      -0.923  -1.069 -13.453  0.00  0.00     0.210 HD
ENDBRANCH  10  16
BRANCH  11  18
HETATM   18  O   UNK     0       0.143  -3.838 -13.436  0.00  0.00    -0.283 OA
BRANCH  18  19
HETATM   19  C   UNK     0      -0.103  -5.017 -12.797  0.00  0.00     0.285 C 
HETATM   20  O   UNK     0       0.525  -5.482 -11.861  0.00  0.00    -0.260 OA
BRANCH  19  21
HETATM   21  C   UNK     0      -1.278  -5.647 -13.443  0.00  0.00     0.083 C 
HETATM   22  C   UNK     0      -1.601  -6.911 -13.136  0.00  0.00     0.017 C 
BRANCH  22  23
HETATM   23  C   UNK     0      -2.737  -7.650 -13.715  0.00  0.00    -0.033 A 
HETATM   24  C   UNK     0      -3.899  -7.840 -12.969  0.00  0.00     0.050 A 
HETATM   25  C   UNK     0      -4.975  -8.538 -13.520  0.00  0.00     0.099 A 
HETATM   26  C   UNK     0      -4.887  -9.044 -14.817  0.00  0.00     0.098 A 
HETATM   27  C   UNK     0      -3.724  -8.853 -15.563  0.00  0.00     0.040 A 
HETATM   28  C   UNK     0      -2.649  -8.156 -15.012  0.00  0.00     0.014 A 
BRANCH  25  29
HETATM   29  O   UNK     0      -6.105  -8.718 -12.781  0.00  0.00    -0.358 OA
HETATM   30  H   UNK     0      -6.095  -8.101 -12.031  0.00  0.00     0.217 HD
ENDBRANCH  25  29
BRANCH  26  31
HETATM   31  O   UNK     0      -5.930  -9.728 -15.365  0.00  0.00    -0.358 OA
HETATM   32  H   UNK     0      -6.705  -9.641 -14.784  0.00  0.00     0.217 HD
ENDBRANCH  26  31
ENDBRANCH  22  23
ENDBRANCH  19  21
ENDBRANCH  18  19
ENDBRANCH  11  18
BRANCH  13  33
HETATM   33  O   UNK     0       2.576   0.159 -13.516  0.00  0.00    -0.368 OA
HETATM   34  H   UNK     0       2.104   0.132 -14.365  0.00  0.00     0.212 HD
ENDBRANCH  13  33
ENDBRANCH   7   8
ENDBRANCH   2   7
BRANCH   6  35
HETATM   35  C   UNK     0      -1.474   3.483 -13.394  0.00  0.00     0.030 C 
HETATM   36  C   UNK     0      -1.769   2.047 -13.789  0.00  0.00     0.007 C 
ENDBRANCH   6  35
BRANCH   3  37
HETATM   37  O   UNK     0       1.629   2.697  -8.787  0.00  0.00    -0.388 OA
HETATM   38  H   UNK     0       2.355   3.181  -9.216  0.00  0.00     0.210 HD
ENDBRANCH   3  37
BRANCH   5  39
HETATM   39  O   UNK     0      -1.574   5.386 -11.137  0.00  0.00    -0.390 OA
HETATM   40  H   UNK     0      -1.357   5.888 -10.334  0.00  0.00     0.210 HD
ENDBRANCH   5  39
BRANCH   4  41
HETATM   41  O   UNK     0      -0.845   4.195  -8.556  0.00  0.00    -0.390 OA
HETATM   42  H   UNK     0      -0.204   4.498  -7.891  0.00  0.00     0.210 HD
ENDBRANCH   4  41
TORSDOF 15
ENDMDL
MODEL 8
REMARK VINA RESULT:      -5.8      2.791      3.904
REMARK  15 active torsions:
REMARK  status: ('A' for Active; 'I' for Inactive)
REMARK    1  A    between atoms: O_2  and  C_14 
REMARK    2  A    between atoms: O_2  and  C_19 
REMARK    3  A    between atoms: O_4  and  C_15 
REMARK    4  A    between atoms: O_5  and  C_16 
REMARK    5  A    between atoms: O_6  and  C_17 
REMARK    6  A    between atoms: O_7  and  C_20 
REMARK    7  A    between atoms: O_8  and  C_21 
REMARK    8  A    between atoms: O_9  and  C_22 
REMARK    9  A    between atoms: O_10  and  C_24 
REMARK   10  A    between atoms: O_10  and  C_26 
REMARK   11  A    between atoms: O_12  and  C_32 
REMARK   12  A    between atoms: O_13  and  C_34 
REMARK   13  A    between atoms: C_18  and  C_23 
REMARK   14  A    between atoms: C_26  and  C_27 
REMARK   15  A    between atoms: C_28  and  C_29 
ROOT
HETATM    1  O   UNK     0      -0.554   1.962 -10.899  0.00  0.00    -0.351 OA
HETATM    2  C   UNK     0      -1.164   2.606 -12.015  0.00  0.00     0.292 C 
HETATM    3  C   UNK     0      -0.893   4.109 -11.974  0.00  0.00     0.204 C 
HETATM    4  C   UNK     0      -1.320   4.717 -10.639  0.00  0.00     0.183 C 
HETATM    5  C   UNK     0      -0.776   3.905  -9.462  0.00  0.00     0.178 C 
HETATM    6  C   UNK     0      -1.077   2.415  -9.650  0.00  0.00     0.155 C 
ENDROOT
BRANCH   2   7
HETATM    7  O   UNK     0      -0.616   2.093 -13.229  0.00  0.00    -0.346 OA
BRANCH   7   8
HETATM    8  C   UNK     0      -0.632   0.666 -13.244  0.00  0.00     0.211 C 
HETATM    9  C   UNK     0       0.805   0.138 -13.203  0.00  0.00     0.185 C 
HETATM   10  C   UNK     0       0.843  -1.362 -13.485  0.00  0.00     0.205 C 
HETATM   11  C   UNK     0       0.098  -1.662 -14.786  0.00  0.00     0.304 C 
HETATM   12  O   UNK     0      -1.251  -1.206 -14.684  0.00  0.00    -0.326 OA
HETATM   13  C   UNK     0      -1.344   0.209 -14.521  0.00  0.00     0.291 C 
BRANCH   9  14
HETATM   14  O   UNK     0       1.389   0.386 -11.927  0.00  0.00    -0.390 OA
HETATM   15  H   UNK     0       2.136  -0.228 -11.823  0.00  0.00     0.210 HD
ENDBRANCH   9  14
BRANCH  10  16
HETATM   16  O   UNK     0       0.198  -2.053 -12.411  0.00  0.00    -0.388 OA
HETATM   17  H   UNK     0       0.157  -2.998 -12.634  0.00  0.00     0.210 HD
ENDBRANCH  10  16
BRANCH  11  18
HETATM   18  O   UNK     0       0.138  -3.066 -15.019  0.00  0.00    -0.283 OA
BRANCH  18  19
HETATM   19  C   UNK     0      -1.050  -3.644 -15.356  0.00  0.00     0.285 C 
HETATM   20  O   UNK     0      -1.694  -3.446 -16.373  0.00  0.00    -0.260 OA
BRANCH  19  21
HETATM   21  C   UNK     0      -1.432  -4.566 -14.261  0.00  0.00     0.083 C 
HETATM   22  C   UNK     0      -0.483  -5.280 -13.639  0.00  0.00     0.017 C 
BRANCH  22  23
HETATM   23  C   UNK     0      -0.736  -6.235 -12.545  0.00  0.00    -0.033 A 
HETATM   24  C   UNK     0       0.304  -6.621 -11.700  0.00  0.00     0.050 A 
HETATM   25  C   UNK     0       0.062  -7.523 -10.664  0.00  0.00     0.099 A 
HETATM   26  C   UNK     0      -1.220  -8.038 -10.472  0.00  0.00     0.098 A 
HETATM   27  C   UNK     0      -2.260  -7.651 -11.316  0.00  0.00     0.040 A 
HETATM   28  C   UNK     0      -2.019  -6.749 -12.353  0.00  0.00     0.014 A 
BRANCH  25  29
HETATM   29  O   UNK     0       1.087  -7.894  -9.846  0.00  0.00    -0.358 OA
HETATM   30  H   UNK     0       1.793  -8.293 -10.382  0.00  0.00     0.217 HD
ENDBRANCH  25  29
BRANCH  26  31
HETATM   31  O   UNK     0      -1.468  -8.920  -9.464  0.00  0.00    -0.358 OA
HETATM   32  H   UNK     0      -2.226  -8.603  -8.944  0.00  0.00     0.217 HD
ENDBRANCH  26  31
ENDBRANCH  22  23
ENDBRANCH  19  21
ENDBRANCH  18  19
ENDBRANCH  11  18
BRANCH  13  33
HETATM   33  O   UNK     0      -2.715   0.594 -14.419  0.00  0.00    -0.368 OA
HETATM   34  H   UNK     0      -2.807   1.109 -13.599  0.00  0.00     0.212 HD
ENDBRANCH  13  33
ENDBRANCH   7   8
ENDBRANCH   2   7
BRANCH   6  35
HETATM   35  C   UNK     0      -0.442   1.568  -8.551  0.00  0.00     0.030 C 
HETATM   36  C   UNK     0      -0.830   0.107  -8.684  0.00  0.00     0.007 C 
ENDBRANCH   6  35
BRANCH   3  37
HETATM   37  O   UNK     0      -1.626   4.732 -13.029  0.00  0.00    -0.388 OA
HETATM   38  H   UNK     0      -1.335   4.342 -13.870  0.00  0.00     0.210 HD
ENDBRANCH   3  37
BRANCH   5  39
HETATM   39  O   UNK     0      -1.385   4.351  -8.254  0.00  0.00    -0.390 OA
HETATM   40  H   UNK     0      -1.715   3.572  -7.776  0.00  0.00     0.210 HD
ENDBRANCH   5  39
BRANCH   4  41
HETATM   41  O   UNK     0      -0.806   6.048 -10.577  0.00  0.00    -0.390 OA
HETATM   42  H   UNK     0      -0.779   6.405 -11.481  0.00  0.00     0.210 HD
ENDBRANCH   4  41
TORSDOF 15
ENDMDL
MODEL 9
REMARK VINA RESULT:      -5.8      3.415     10.213
REMARK  15 active torsions:
REMARK  status: ('A' for Active; 'I' for Inactive)
REMARK    1  A    between atoms: O_2  and  C_14 
REMARK    2  A    between atoms: O_2  and  C_19 
REMARK    3  A    between atoms: O_4  and  C_15 
REMARK    4  A    between atoms: O_5  and  C_16 
REMARK    5  A    between atoms: O_6  and  C_17 
REMARK    6  A    between atoms: O_7  and  C_20 
REMARK    7  A    between atoms: O_8  and  C_21 
REMARK    8  A    between atoms: O_9  and  C_22 
REMARK    9  A    between atoms: O_10  and  C_24 
REMARK   10  A    between atoms: O_10  and  C_26 
REMARK   11  A    between atoms: O_12  and  C_32 
REMARK   12  A    between atoms: O_13  and  C_34 
REMARK   13  A    between atoms: C_18  and  C_23 
REMARK   14  A    between atoms: C_26  and  C_27 
REMARK   15  A    between atoms: C_28  and  C_29 
ROOT
HETATM    1  O   UNK     0      -0.066  -3.437 -14.111  0.00  0.00    -0.351 OA
HETATM    2  C   UNK     0       0.317  -3.699 -12.764  0.00  0.00     0.292 C 
HETATM    3  C   UNK     0       0.831  -5.131 -12.626  0.00  0.00     0.204 C 
HETATM    4  C   UNK     0      -0.187  -6.141 -13.154  0.00  0.00     0.183 C 
HETATM    5  C   UNK     0      -0.696  -5.741 -14.540  0.00  0.00     0.178 C 
HETATM    6  C   UNK     0      -1.137  -4.274 -14.550  0.00  0.00     0.155 C 
ENDROOT
BRANCH   2   7
HETATM    7  O   UNK     0       1.371  -2.815 -12.381  0.00  0.00    -0.346 OA
BRANCH   7   8
HETATM    8  C   UNK     0       0.897  -1.788 -11.511  0.00  0.00     0.211 C 
HETATM    9  C   UNK     0       0.785  -0.473 -12.287  0.00  0.00     0.185 C 
HETATM   10  C   UNK     0       0.541   0.700 -11.341  0.00  0.00     0.205 C 
HETATM   11  C   UNK     0       1.602   0.706 -10.241  0.00  0.00     0.304 C 
HETATM   12  O   UNK     0       1.562  -0.530  -9.527  0.00  0.00    -0.326 OA
HETATM   13  C   UNK     0       1.886  -1.652 -10.348  0.00  0.00     0.291 C 
BRANCH   9  14
HETATM   14  O   UNK     0      -0.283  -0.541 -13.228  0.00  0.00    -0.390 OA
HETATM   15  H   UNK     0      -1.107  -0.343 -12.751  0.00  0.00     0.210 HD
ENDBRANCH   9  14
BRANCH  10  16
HETATM   16  O   UNK     0      -0.750   0.551 -10.740  0.00  0.00    -0.388 OA
HETATM   17  H   UNK     0      -1.240   1.382 -10.856  0.00  0.00     0.210 HD
ENDBRANCH  10  16
BRANCH  11  18
HETATM   18  O   UNK     0       1.345   1.800  -9.366  0.00  0.00    -0.283 OA
BRANCH  18  19
HETATM   19  C   UNK     0       1.973   2.969  -9.679  0.00  0.00     0.285 C 
HETATM   20  O   UNK     0       3.178   3.164  -9.705  0.00  0.00    -0.260 OA
BRANCH  19  21
HETATM   21  C   UNK     0       0.932   3.976  -9.986  0.00  0.00     0.083 C 
HETATM   22  C   UNK     0      -0.272   3.879  -9.404  0.00  0.00     0.017 C 
BRANCH  22  23
HETATM   23  C   UNK     0      -1.391   4.810  -9.634  0.00  0.00    -0.033 A 
HETATM   24  C   UNK     0      -2.661   4.510  -9.143  0.00  0.00     0.050 A 
HETATM   25  C   UNK     0      -3.719   5.394  -9.359  0.00  0.00     0.099 A 
HETATM   26  C   UNK     0      -3.505   6.577 -10.066  0.00  0.00     0.098 A 
HETATM   27  C   UNK     0      -2.235   6.877 -10.557  0.00  0.00     0.040 A 
HETATM   28  C   UNK     0      -1.178   5.994 -10.341  0.00  0.00     0.014 A 
BRANCH  25  29
HETATM   29  O   UNK     0      -4.955   5.090  -8.875  0.00  0.00    -0.358 OA
HETATM   30  H   UNK     0      -5.372   4.433  -9.458  0.00  0.00     0.217 HD
ENDBRANCH  25  29
BRANCH  26  31
HETATM   31  O   UNK     0      -4.531   7.447 -10.284  0.00  0.00    -0.358 OA
HETATM   32  H   UNK     0      -4.170   8.346 -10.376  0.00  0.00     0.217 HD
ENDBRANCH  26  31
ENDBRANCH  22  23
ENDBRANCH  19  21
ENDBRANCH  18  19
ENDBRANCH  11  18
BRANCH  13  33
HETATM   33  O   UNK     0       1.820  -2.851  -9.576  0.00  0.00    -0.368 OA
HETATM   34  H   UNK     0       2.688  -2.968  -9.154  0.00  0.00     0.212 HD
ENDBRANCH  13  33
ENDBRANCH   7   8
ENDBRANCH   2   7
BRANCH   6  35
HETATM   35  C   UNK     0      -1.537  -3.815 -15.949  0.00  0.00     0.030 C 
HETATM   36  C   UNK     0      -1.926  -2.348 -15.960  0.00  0.00     0.007 C 
ENDBRANCH   6  35
BRANCH   3  37
HETATM   37  O   UNK     0       1.079  -5.395 -11.246  0.00  0.00    -0.388 OA
HETATM   38  H   UNK     0       0.984  -6.351 -11.099  0.00  0.00     0.210 HD
ENDBRANCH   3  37
BRANCH   5  39
HETATM   39  O   UNK     0      -1.807  -6.561 -14.895  0.00  0.00    -0.390 OA
HETATM   40  H   UNK     0      -1.463  -7.386 -15.275  0.00  0.00     0.210 HD
ENDBRANCH   5  39
BRANCH   4  41
HETATM   41  O   UNK     0       0.456  -7.414 -13.233  0.00  0.00    -0.390 OA
HETATM   42  H   UNK     0       0.568  -7.753 -12.328  0.00  0.00     0.210 HD
ENDBRANCH   4  41
TORSDOF 15
ENDMDL
