REMARK VINA RESULT:      -6.5      0.000      0.000
REMARK  15 active torsions:
REMARK  status: ('A' for Active; 'I' for Inactive)
REMARK    1  A    between atoms: O_2  and  C_14 
REMARK    2  A    between atoms: O_2  and  C_19 
REMARK    3  A    between atoms: O_4  and  C_15 
REMARK    4  A    between atoms: O_5  and  C_16 
REMARK    5  A    between atoms: O_6  and  C_17 
REMARK    6  A    between atoms: O_7  and  C_20 
REMARK    7  A    between atoms: O_8  and  C_21 
REMARK    8  A    between atoms: O_9  and  C_22 
REMARK    9  A    between atoms: O_10  and  C_24 
REMARK   10  A    between atoms: O_10  and  C_26 
REMARK   11  A    between atoms: O_12  and  C_32 
REMARK   12  A    between atoms: O_13  and  C_34 
REMARK   13  A    between atoms: C_18  and  C_23 
REMARK   14  A    between atoms: C_26  and  C_27 
REMARK   15  A    between atoms: C_28  and  C_29 
ROOT
HETATM    1  O   UNK     0       0.532   0.626 -11.967  0.00  0.00    -0.351 OA
HETATM    2  C   UNK     0      -0.524   0.856 -12.896  0.00  0.00     0.292 C 
HETATM    3  C   UNK     0      -1.083   2.267 -12.727  0.00  0.00     0.204 C 
HETATM    4  C   UNK     0      -1.504   2.531 -11.283  0.00  0.00     0.183 C 
HETATM    5  C   UNK     0      -0.403   2.123 -10.302  0.00  0.00     0.178 C 
HETATM    6  C   UNK     0       0.097   0.709 -10.609  0.00  0.00     0.155 C 
ENDROOT
BRANCH   2   7
HETATM    7  O   UNK     0      -0.029   0.735 -14.230  0.00  0.00    -0.346 OA
BRANCH   7   8
HETATM    8  C   UNK     0      -0.281  -0.565 -14.762  0.00  0.00     0.211 C 
HETATM    9  C   UNK     0      -1.692  -1.013 -14.370  0.00  0.00     0.185 C 
HETATM   10  C   UNK     0      -1.902  -2.492 -14.688  0.00  0.00     0.205 C 
HETATM   11  C   UNK     0      -0.781  -3.320 -14.061  0.00  0.00     0.304 C 
HETATM   12  O   UNK     0       0.482  -2.876 -14.559  0.00  0.00    -0.326 OA
HETATM   13  C   UNK     0       0.772  -1.525 -14.199  0.00  0.00     0.291 C 
BRANCH   9  14
HETATM   14  O   UNK     0      -2.668  -0.245 -15.067  0.00  0.00    -0.390 OA
HETATM   15  H   UNK     0      -2.942   0.481 -14.481  0.00  0.00     0.210 HD
ENDBRANCH   9  14
BRANCH  10  16
HETATM   16  O   UNK     0      -1.873  -2.670 -16.108  0.00  0.00    -0.388 OA
HETATM   17  H   UNK     0      -1.043  -2.294 -16.447  0.00  0.00     0.210 HD
ENDBRANCH  10  16
BRANCH  11  18
HETATM   18  O   UNK     0      -0.994  -4.691 -14.382  0.00  0.00    -0.283 OA
BRANCH  18  19
HETATM   19  C   UNK     0      -1.107  -5.537 -13.318  0.00  0.00     0.285 C 
HETATM   20  O   UNK     0      -0.528  -5.444 -12.248  0.00  0.00    -0.260 OA
BRANCH  19  21
HETATM   21  C   UNK     0      -2.064  -6.605 -13.689  0.00  0.00     0.083 C 
HETATM   22  C   UNK     0      -2.923  -7.068 -12.770  0.00  0.00     0.017 C 
BRANCH  22  23
HETATM   23  C   UNK     0      -3.915  -8.132 -13.011  0.00  0.00    -0.033 A 
HETATM   24  C   UNK     0      -5.186  -7.807 -13.485  0.00  0.00     0.050 A 
HETATM   25  C   UNK     0      -6.123  -8.815 -13.715  0.00  0.00     0.099 A 
HETATM   26  C   UNK     0      -5.788 -10.147 -13.472  0.00  0.00     0.098 A 
HETATM   27  C   UNK     0      -4.517 -10.472 -12.998  0.00  0.00     0.040 A 
HETATM   28  C   UNK     0      -3.580  -9.464 -12.768  0.00  0.00     0.014 A 
BRANCH  25  29
HETATM   29  O   UNK     0      -7.361  -8.485 -14.177  0.00  0.00    -0.358 OA
HETATM   30  H   UNK     0      -7.634  -7.642 -13.779  0.00  0.00     0.217 HD
ENDBRANCH  25  29
BRANCH  26  31
HETATM   31  O   UNK     0      -6.695 -11.139 -13.691  0.00  0.00    -0.358 OA
HETATM   32  H   UNK     0      -6.653 -11.775 -12.956  0.00  0.00     0.217 HD
ENDBRANCH  26  31
ENDBRANCH  22  23
ENDBRANCH  19  21
ENDBRANCH  18  19
ENDBRANCH  11  18
BRANCH  13  33
HETATM   33  O   UNK     0       2.041  -1.145 -14.733  0.00  0.00    -0.368 OA
HETATM   34  H   UNK     0       1.997  -0.192 -14.922  0.00  0.00     0.212 HD
ENDBRANCH  13  33
ENDBRANCH   7   8
ENDBRANCH   2   7
BRANCH   6  35
HETATM   35  C   UNK     0       1.278   0.323  -9.723  0.00  0.00     0.030 C 
HETATM   36  C   UNK     0       1.174  -1.119  -9.260  0.00  0.00     0.007 C 
ENDBRANCH   6  35
BRANCH   3  37
HETATM   37  O   UNK     0      -2.219   2.411 -13.580  0.00  0.00    -0.388 OA
HETATM   38  H   UNK     0      -2.046   3.148 -14.191  0.00  0.00     0.210 HD
ENDBRANCH   3  37
BRANCH   5  39
HETATM   39  O   UNK     0      -0.914   2.156  -8.972  0.00  0.00    -0.390 OA
HETATM   40  H   UNK     0      -0.285   2.651  -8.420  0.00  0.00     0.210 HD
ENDBRANCH   5  39
BRANCH   4  41
HETATM   41  O   UNK     0      -1.768   3.929 -11.149  0.00  0.00    -0.390 OA
HETATM   42  H   UNK     0      -1.429   4.378 -11.942  0.00  0.00     0.210 HD
ENDBRANCH   4  41
TORSDOF 15
