REMARK VINA RESULT:      -5.8      2.641      8.517
REMARK  4 active torsions:
REMARK  status: ('A' for Active; 'I' for Inactive)
REMARK    1  A    between atoms: N_3  and  C_15 
REMARK    2  A    between atoms: N_5  and  C_13 
REMARK    3  A    between atoms: N_5  and  C_23 
REMARK    4  A    between atoms: N_6  and  C_17 
ROOT
HETATM    1 Cl   UNK     0      -2.745  -8.169 -15.828  0.00  0.00    -0.084 Cl
HETATM    2  C   UNK     0      -0.113  -6.089 -12.809  0.00  0.00     0.040 A 
HETATM    3  C   UNK     0       0.408  -6.471 -14.047  0.00  0.00     0.031 A 
HETATM    4  C   UNK     0      -1.451  -6.351 -12.509  0.00  0.00     0.031 A 
HETATM    5  C   UNK     0      -0.405  -7.114 -14.979  0.00  0.00     0.026 A 
HETATM    6  C   UNK     0      -2.264  -6.994 -13.442  0.00  0.00     0.026 A 
HETATM    7  C   UNK     0      -1.742  -7.375 -14.677  0.00  0.00     0.034 A 
ENDROOT
BRANCH   2   8
HETATM    8  N   UNK     0       0.707  -5.439 -11.868  0.00  0.00    -0.307 N 
HETATM    9  C   UNK     0       0.872  -4.043 -11.944  0.00  0.00     0.071 A 
HETATM   10  C   UNK     0       1.761  -3.428 -10.907  0.00  0.00     0.087 A 
HETATM   11  C   UNK     0       0.312  -3.213 -12.843  0.00  0.00     0.066 A 
HETATM   12  N   UNK     0       2.367  -4.093  -9.970  0.00  0.00    -0.244 NA
HETATM   13  C   UNK     0       1.968  -1.961 -10.943  0.00  0.00     0.066 A 
HETATM   14  C   UNK     0       2.191  -5.483  -9.910  0.00  0.00     0.084 A 
HETATM   15  C   UNK     0       1.379  -6.173 -10.832  0.00  0.00     0.069 A 
HETATM   16  C   UNK     0       2.852  -6.185  -8.893  0.00  0.00     0.034 A 
HETATM   17  C   UNK     0       1.263  -7.571 -10.701  0.00  0.00     0.032 A 
HETATM   18  C   UNK     0       1.927  -8.259  -9.683  0.00  0.00     0.002 A 
HETATM   19  C   UNK     0       2.722  -7.566  -8.778  0.00  0.00     0.002 A 
HETATM   20  C   UNK     0       1.404  -1.152 -11.845  0.00  0.00     0.063 A 
HETATM   21  C   UNK     0       0.516  -1.744 -12.878  0.00  0.00     0.080 A 
HETATM   22  N   UNK     0      -0.057  -1.004 -13.777  0.00  0.00    -0.283 NA
BRANCH  20  23
HETATM   23  N   UNK     0       1.584   0.200 -11.890  0.00  0.00    -0.354 N 
HETATM   24  H   UNK     0       2.332   0.528 -12.492  0.00  0.00     0.166 HD
BRANCH  23  25
HETATM   25  C   UNK     0       0.914   1.190 -11.163  0.00  0.00     0.032 A 
HETATM   26  C   UNK     0       1.423   1.635  -9.936  0.00  0.00     0.031 A 
HETATM   27  C   UNK     0       0.754   2.620  -9.210  0.00  0.00     0.026 A 
HETATM   28  C   UNK     0      -0.429   3.170  -9.705  0.00  0.00     0.034 A 
HETATM   29 Cl   UNK     0      -1.252   4.387  -8.811  0.00  0.00    -0.084 Cl
HETATM   30  C   UNK     0      -0.942   2.733 -10.927  0.00  0.00     0.026 A 
HETATM   31  C   UNK     0      -0.274   1.747 -11.652  0.00  0.00     0.031 A 
ENDBRANCH  23  25
ENDBRANCH  20  23
BRANCH  22  32
HETATM   32  C   UNK     0      -0.891  -1.741 -14.711  0.00  0.00     0.100 C 
HETATM   33  C   UNK     0      -2.215  -1.010 -14.874  0.00  0.00     0.034 C 
HETATM   34  C   UNK     0      -0.152  -1.872 -16.035  0.00  0.00     0.034 C 
ENDBRANCH  22  32
ENDBRANCH   2   8
TORSDOF 4
