REMARK VINA RESULT:      -5.6      1.938      7.293
REMARK  4 active torsions:
REMARK  status: ('A' for Active; 'I' for Inactive)
REMARK    1  A    between atoms: N_3  and  C_15 
REMARK    2  A    between atoms: N_5  and  C_13 
REMARK    3  A    between atoms: N_5  and  C_23 
REMARK    4  A    between atoms: N_6  and  C_17 
ROOT
HETATM    1 Cl   UNK     0       0.987 -10.099  -9.296  0.00  0.00    -0.084 Cl
HETATM    2  C   UNK     0       0.440  -6.359 -11.761  0.00  0.00     0.040 A 
HETATM    3  C   UNK     0       1.652  -7.052 -11.800  0.00  0.00     0.031 A 
HETATM    4  C   UNK     0      -0.602  -6.828 -10.959  0.00  0.00     0.031 A 
HETATM    5  C   UNK     0       1.821  -8.207 -11.038  0.00  0.00     0.026 A 
HETATM    6  C   UNK     0      -0.433  -7.983 -10.197  0.00  0.00     0.026 A 
HETATM    7  C   UNK     0       0.778  -8.674 -10.237  0.00  0.00     0.034 A 
ENDROOT
BRANCH   2   8
HETATM    8  N   UNK     0       0.269  -5.193 -12.531  0.00  0.00    -0.307 N 
HETATM    9  C   UNK     0       0.712  -3.958 -12.019  0.00  0.00     0.071 A 
HETATM   10  C   UNK     0       0.492  -2.766 -12.898  0.00  0.00     0.087 A 
HETATM   11  C   UNK     0       1.312  -3.746 -10.833  0.00  0.00     0.066 A 
HETATM   12  N   UNK     0      -0.065  -2.809 -14.070  0.00  0.00    -0.244 NA
HETATM   13  C   UNK     0       0.941  -1.441 -12.405  0.00  0.00     0.066 A 
HETATM   14  C   UNK     0      -0.500  -4.047 -14.563  0.00  0.00     0.084 A 
HETATM   15  C   UNK     0      -0.349  -5.238 -13.826  0.00  0.00     0.069 A 
HETATM   16  C   UNK     0      -1.099  -4.075 -15.830  0.00  0.00     0.034 A 
HETATM   17  C   UNK     0      -0.819  -6.438 -14.397  0.00  0.00     0.032 A 
HETATM   18  C   UNK     0      -1.415  -6.452 -15.660  0.00  0.00     0.002 A 
HETATM   19  C   UNK     0      -1.555  -5.271 -16.377  0.00  0.00     0.002 A 
HETATM   20  C   UNK     0       1.533  -1.249 -11.223  0.00  0.00     0.063 A 
HETATM   21  C   UNK     0       1.763  -2.421 -10.341  0.00  0.00     0.080 A 
HETATM   22  N   UNK     0       2.335  -2.290  -9.184  0.00  0.00    -0.283 NA
BRANCH  20  23
HETATM   23  N   UNK     0       1.952  -0.036 -10.757  0.00  0.00    -0.354 N 
HETATM   24  H   UNK     0       2.956   0.096 -10.705  0.00  0.00     0.166 HD
BRANCH  23  25
HETATM   25  C   UNK     0       1.176   1.026 -10.279  0.00  0.00     0.032 A 
HETATM   26  C   UNK     0       0.053   0.779  -9.479  0.00  0.00     0.031 A 
HETATM   27  C   UNK     0      -0.721   1.837  -9.004  0.00  0.00     0.026 A 
HETATM   28  C   UNK     0      -0.379   3.151  -9.325  0.00  0.00     0.034 A 
HETATM   29 Cl   UNK     0      -1.333   4.456  -8.737  0.00  0.00    -0.084 Cl
HETATM   30  C   UNK     0       0.738   3.406 -10.120  0.00  0.00     0.026 A 
HETATM   31  C   UNK     0       1.512   2.348 -10.597  0.00  0.00     0.031 A 
ENDBRANCH  23  25
ENDBRANCH  20  23
BRANCH  22  32
HETATM   32  C   UNK     0       2.482  -3.535  -8.448  0.00  0.00     0.100 C 
HETATM   33  C   UNK     0       3.957  -3.905  -8.393  0.00  0.00     0.034 C 
HETATM   34  C   UNK     0       1.892  -3.359  -7.057  0.00  0.00     0.034 C 
ENDBRANCH  22  32
ENDBRANCH   2   8
TORSDOF 4
