REMARK VINA RESULT:      -6.0      3.224      5.631
REMARK  4 active torsions:
REMARK  status: ('A' for Active; 'I' for Inactive)
REMARK    1  A    between atoms: N_3  and  C_15 
REMARK    2  A    between atoms: N_5  and  C_13 
REMARK    3  A    between atoms: N_5  and  C_23 
REMARK    4  A    between atoms: N_6  and  C_17 
ROOT
HETATM    1 Cl   UNK     0       4.069  -3.394  -5.468  0.00  0.00    -0.084 Cl
HETATM    2  C   UNK     0       1.754  -2.268  -9.175  0.00  0.00     0.040 A 
HETATM    3  C   UNK     0       3.150  -2.228  -9.182  0.00  0.00     0.031 A 
HETATM    4  C   UNK     0       1.077  -2.658  -8.018  0.00  0.00     0.031 A 
HETATM    5  C   UNK     0       3.865  -2.576  -8.037  0.00  0.00     0.026 A 
HETATM    6  C   UNK     0       1.793  -3.006  -6.872  0.00  0.00     0.026 A 
HETATM    7  C   UNK     0       3.186  -2.966  -6.882  0.00  0.00     0.034 A 
ENDROOT
BRANCH   2   8
HETATM    8  N   UNK     0       1.032  -1.918 -10.331  0.00  0.00    -0.307 N 
HETATM    9  C   UNK     0       0.709  -2.916 -11.271  0.00  0.00     0.071 A 
HETATM   10  C   UNK     0      -0.060  -2.461 -12.473  0.00  0.00     0.087 A 
HETATM   11  C   UNK     0       1.015  -4.223 -11.195  0.00  0.00     0.066 A 
HETATM   12  N   UNK     0      -0.434  -1.236 -12.687  0.00  0.00    -0.244 NA
HETATM   13  C   UNK     0      -0.425  -3.473 -13.494  0.00  0.00     0.066 A 
HETATM   14  C   UNK     0      -0.104  -0.257 -11.740  0.00  0.00     0.084 A 
HETATM   15  C   UNK     0       0.618  -0.564 -10.571  0.00  0.00     0.069 A 
HETATM   16  C   UNK     0      -0.516   1.060 -11.987  0.00  0.00     0.034 A 
HETATM   17  C   UNK     0       0.911   0.484  -9.675  0.00  0.00     0.032 A 
HETATM   18  C   UNK     0       0.496   1.793  -9.933  0.00  0.00     0.002 A 
HETATM   19  C   UNK     0      -0.218   2.081 -11.089  0.00  0.00     0.002 A 
HETATM   20  C   UNK     0      -0.111  -4.768 -13.402  0.00  0.00     0.063 A 
HETATM   21  C   UNK     0       0.647  -5.237 -12.214  0.00  0.00     0.080 A 
HETATM   22  N   UNK     0       0.976  -6.484 -12.075  0.00  0.00    -0.283 NA
BRANCH  20  23
HETATM   23  N   UNK     0      -0.441  -5.711 -14.333  0.00  0.00    -0.354 N 
HETATM   24  H   UNK     0       0.172  -5.772 -15.138  0.00  0.00     0.166 HD
BRANCH  23  25
HETATM   25  C   UNK     0      -1.554  -6.560 -14.352  0.00  0.00     0.032 A 
HETATM   26  C   UNK     0      -1.927  -7.211 -15.535  0.00  0.00     0.031 A 
HETATM   27  C   UNK     0      -3.037  -8.056 -15.555  0.00  0.00     0.026 A 
HETATM   28  C   UNK     0      -3.781  -8.257 -14.392  0.00  0.00     0.034 A 
HETATM   29 Cl   UNK     0      -5.148  -9.301 -14.416  0.00  0.00    -0.084 Cl
HETATM   30  C   UNK     0      -3.415  -7.613 -13.210  0.00  0.00     0.026 A 
HETATM   31  C   UNK     0      -2.307  -6.767 -13.190  0.00  0.00     0.031 A 
ENDBRANCH  23  25
ENDBRANCH  20  23
BRANCH  22  32
HETATM   32  C   UNK     0       1.716  -6.773 -10.858  0.00  0.00     0.100 C 
HETATM   33  C   UNK     0       0.892  -7.713  -9.991  0.00  0.00     0.034 C 
HETATM   34  C   UNK     0       3.061  -7.379 -11.229  0.00  0.00     0.034 C 
ENDBRANCH  22  32
ENDBRANCH   2   8
TORSDOF 4
