REMARK VINA RESULT:      -6.5      0.000      0.000
REMARK  4 active torsions:
REMARK  status: ('A' for Active; 'I' for Inactive)
REMARK    1  A    between atoms: N_3  and  C_15 
REMARK    2  A    between atoms: N_5  and  C_13 
REMARK    3  A    between atoms: N_5  and  C_23 
REMARK    4  A    between atoms: N_6  and  C_17 
ROOT
HETATM    1 Cl   UNK     0       0.026   3.278  -8.907  0.00  0.00    -0.084 Cl
HETATM    2  C   UNK     0       0.012  -0.531 -11.326  0.00  0.00     0.040 A 
HETATM    3  C   UNK     0      -0.916  -0.351 -10.299  0.00  0.00     0.031 A 
HETATM    4  C   UNK     0       0.944   0.471 -11.604  0.00  0.00     0.031 A 
HETATM    5  C   UNK     0      -0.912   0.826  -9.552  0.00  0.00     0.026 A 
HETATM    6  C   UNK     0       0.949   1.648 -10.855  0.00  0.00     0.026 A 
HETATM    7  C   UNK     0       0.021   1.826  -9.830  0.00  0.00     0.034 A 
ENDROOT
BRANCH   2   8
HETATM    8  N   UNK     0       0.007  -1.719 -12.082  0.00  0.00    -0.307 N 
HETATM    9  C   UNK     0       0.695  -2.848 -11.596  0.00  0.00     0.071 A 
HETATM   10  C   UNK     0       0.643  -4.071 -12.459  0.00  0.00     0.087 A 
HETATM   11  C   UNK     0       1.383  -2.938 -10.443  0.00  0.00     0.066 A 
HETATM   12  N   UNK     0       0.016  -4.144 -13.594  0.00  0.00    -0.244 NA
HETATM   13  C   UNK     0       1.351  -5.287 -11.993  0.00  0.00     0.066 A 
HETATM   14  C   UNK     0      -0.663  -3.010 -14.061  0.00  0.00     0.084 A 
HETATM   15  C   UNK     0      -0.684  -1.801 -13.338  0.00  0.00     0.069 A 
HETATM   16  C   UNK     0      -1.335  -3.106 -15.288  0.00  0.00     0.034 A 
HETATM   17  C   UNK     0      -1.388  -0.710 -13.885  0.00  0.00     0.032 A 
HETATM   18  C   UNK     0      -2.052  -0.819 -15.109  0.00  0.00     0.002 A 
HETATM   19  C   UNK     0      -2.026  -2.017 -15.811  0.00  0.00     0.002 A 
HETATM   20  C   UNK     0       2.031  -5.357 -10.845  0.00  0.00     0.063 A 
HETATM   21  C   UNK     0       2.089  -4.155  -9.975  0.00  0.00     0.080 A 
HETATM   22  N   UNK     0       2.735  -4.170  -8.849  0.00  0.00    -0.283 NA
BRANCH  20  23
HETATM   23  N   UNK     0       2.687  -6.470 -10.403  0.00  0.00    -0.354 N 
HETATM   24  H   UNK     0       3.568  -6.676 -10.860  0.00  0.00     0.166 HD
BRANCH  23  25
HETATM   25  C   UNK     0       2.269  -7.400  -9.444  0.00  0.00     0.032 A 
HETATM   26  C   UNK     0       0.937  -7.422  -9.012  0.00  0.00     0.031 A 
HETATM   27  C   UNK     0       0.521  -8.349  -8.056  0.00  0.00     0.026 A 
HETATM   28  C   UNK     0       1.433  -9.261  -7.524  0.00  0.00     0.034 A 
HETATM   29 Cl   UNK     0       0.919 -10.405  -6.347  0.00  0.00    -0.084 Cl
HETATM   30  C   UNK     0       2.762  -9.246  -7.950  0.00  0.00     0.026 A 
HETATM   31  C   UNK     0       3.179  -8.319  -8.905  0.00  0.00     0.031 A 
ENDBRANCH  23  25
ENDBRANCH  20  23
BRANCH  22  32
HETATM   32  C   UNK     0       2.693  -2.912  -8.122  0.00  0.00     0.100 C 
HETATM   33  C   UNK     0       2.253  -3.184  -6.692  0.00  0.00     0.034 C 
HETATM   34  C   UNK     0       4.069  -2.265  -8.176  0.00  0.00     0.034 C 
ENDBRANCH  22  32
ENDBRANCH   2   8
TORSDOF 4
