REMARK VINA RESULT:      -5.4      2.293      7.684
REMARK  4 active torsions:
REMARK  status: ('A' for Active; 'I' for Inactive)
REMARK    1  A    between atoms: N_3  and  C_15 
REMARK    2  A    between atoms: N_5  and  C_13 
REMARK    3  A    between atoms: N_5  and  C_23 
REMARK    4  A    between atoms: N_6  and  C_17 
ROOT
HETATM    1 Cl   UNK     0       2.988  -8.675 -11.471  0.00  0.00    -0.084 Cl
HETATM    2  C   UNK     0       0.973  -4.771 -12.499  0.00  0.00     0.040 A 
HETATM    3  C   UNK     0       1.537  -5.554 -13.507  0.00  0.00     0.031 A 
HETATM    4  C   UNK     0       1.033  -5.200 -11.171  0.00  0.00     0.031 A 
HETATM    5  C   UNK     0       2.160  -6.760 -13.190  0.00  0.00     0.026 A 
HETATM    6  C   UNK     0       1.656  -6.406 -10.854  0.00  0.00     0.026 A 
HETATM    7  C   UNK     0       2.219  -7.187 -11.863  0.00  0.00     0.034 A 
ENDROOT
BRANCH   2   8
HETATM    8  N   UNK     0       0.343  -3.553 -12.819  0.00  0.00    -0.307 N 
HETATM    9  C   UNK     0       0.469  -2.460 -11.940  0.00  0.00     0.071 A 
HETATM   10  C   UNK     0      -0.231  -1.202 -12.352  0.00  0.00     0.087 A 
HETATM   11  C   UNK     0       1.152  -2.433 -10.781  0.00  0.00     0.066 A 
HETATM   12  N   UNK     0      -0.923  -1.069 -13.442  0.00  0.00    -0.244 NA
HETATM   13  C   UNK     0      -0.130  -0.021 -11.461  0.00  0.00     0.066 A 
HETATM   14  C   UNK     0      -1.037  -2.168 -14.306  0.00  0.00     0.084 A 
HETATM   15  C   UNK     0      -0.424  -3.404 -14.024  0.00  0.00     0.069 A 
HETATM   16  C   UNK     0      -1.788  -2.006 -15.478  0.00  0.00     0.034 A 
HETATM   17  C   UNK     0      -0.594  -4.457 -14.945  0.00  0.00     0.032 A 
HETATM   18  C   UNK     0      -1.346  -4.284 -16.109  0.00  0.00     0.002 A 
HETATM   19  C   UNK     0      -1.943  -3.059 -16.377  0.00  0.00     0.002 A 
HETATM   20  C   UNK     0       0.552  -0.013 -10.312  0.00  0.00     0.063 A 
HETATM   21  C   UNK     0       1.256  -1.251  -9.891  0.00  0.00     0.080 A 
HETATM   22  N   UNK     0       1.933  -1.296  -8.785  0.00  0.00    -0.283 NA
BRANCH  20  23
HETATM   23  N   UNK     0       0.654   1.067  -9.482  0.00  0.00    -0.354 N 
HETATM   24  H   UNK     0       1.156   0.912  -8.615  0.00  0.00     0.166 HD
BRANCH  23  25
HETATM   25  C   UNK     0       0.099   2.341  -9.644  0.00  0.00     0.032 A 
HETATM   26  C   UNK     0       0.905   3.421 -10.027  0.00  0.00     0.031 A 
HETATM   27  C   UNK     0       0.353   4.692 -10.186  0.00  0.00     0.026 A 
HETATM   28  C   UNK     0      -1.010   4.893  -9.965  0.00  0.00     0.034 A 
HETATM   29 Cl   UNK     0      -1.691   6.460 -10.164  0.00  0.00    -0.084 Cl
HETATM   30  C   UNK     0      -1.819   3.823  -9.584  0.00  0.00     0.026 A 
HETATM   31  C   UNK     0      -1.267   2.552  -9.423  0.00  0.00     0.031 A 
ENDBRANCH  23  25
ENDBRANCH  20  23
BRANCH  22  32
HETATM   32  C   UNK     0       2.558  -2.581  -8.522  0.00  0.00     0.100 C 
HETATM   33  C   UNK     0       4.068  -2.401  -8.502  0.00  0.00     0.034 C 
HETATM   34  C   UNK     0       2.037  -3.122  -7.199  0.00  0.00     0.034 C 
ENDBRANCH  22  32
ENDBRANCH   2   8
TORSDOF 4
