REMARK VINA RESULT:      -6.4      3.030      8.830
REMARK  4 active torsions:
REMARK  status: ('A' for Active; 'I' for Inactive)
REMARK    1  A    between atoms: N_3  and  C_15 
REMARK    2  A    between atoms: N_5  and  C_13 
REMARK    3  A    between atoms: N_5  and  C_23 
REMARK    4  A    between atoms: N_6  and  C_17 
ROOT
HETATM    1 Cl   UNK     0      -0.504  -5.521 -16.359  0.00  0.00    -0.084 Cl
HETATM    2  C   UNK     0       0.891  -3.548 -12.548  0.00  0.00     0.040 A 
HETATM    3  C   UNK     0      -0.432  -3.976 -12.671  0.00  0.00     0.031 A 
HETATM    4  C   UNK     0       1.782  -3.732 -13.608  0.00  0.00     0.031 A 
HETATM    5  C   UNK     0      -0.863  -4.586 -13.848  0.00  0.00     0.026 A 
HETATM    6  C   UNK     0       1.350  -4.342 -14.786  0.00  0.00     0.026 A 
HETATM    7  C   UNK     0       0.028  -4.769 -14.906  0.00  0.00     0.034 A 
ENDROOT
BRANCH   2   8
HETATM    8  N   UNK     0       1.327  -2.933 -11.359  0.00  0.00    -0.307 N 
HETATM    9  C   UNK     0       1.226  -1.534 -11.230  0.00  0.00     0.071 A 
HETATM   10  C   UNK     0       1.712  -0.958  -9.936  0.00  0.00     0.087 A 
HETATM   11  C   UNK     0       0.737  -0.674 -12.141  0.00  0.00     0.066 A 
HETATM   12  N   UNK     0       2.204  -1.656  -8.958  0.00  0.00    -0.244 NA
HETATM   13  C   UNK     0       1.628   0.511  -9.748  0.00  0.00     0.066 A 
HETATM   14  C   UNK     0       2.296  -3.047  -9.105  0.00  0.00     0.084 A 
HETATM   15  C   UNK     0       1.872  -3.703 -10.277  0.00  0.00     0.069 A 
HETATM   16  C   UNK     0       2.829  -3.786  -8.039  0.00  0.00     0.034 A 
HETATM   17  C   UNK     0       2.006  -5.105 -10.342  0.00  0.00     0.032 A 
HETATM   18  C   UNK     0       2.539  -5.829  -9.273  0.00  0.00     0.002 A 
HETATM   19  C   UNK     0       2.951  -5.171  -8.122  0.00  0.00     0.002 A 
HETATM   20  C   UNK     0       1.141   1.351 -10.667  0.00  0.00     0.063 A 
HETATM   21  C   UNK     0       0.650   0.795 -11.953  0.00  0.00     0.080 A 
HETATM   22  N   UNK     0       0.166   1.567 -12.878  0.00  0.00    -0.283 NA
BRANCH  20  23
HETATM   23  N   UNK     0       1.056   2.704 -10.508  0.00  0.00    -0.354 N 
HETATM   24  H   UNK     0       1.925   3.217 -10.611  0.00  0.00     0.166 HD
BRANCH  23  25
HETATM   25  C   UNK     0      -0.061   3.469 -10.156  0.00  0.00     0.032 A 
HETATM   26  C   UNK     0      -1.193   2.856  -9.603  0.00  0.00     0.031 A 
HETATM   27  C   UNK     0      -2.308   3.618  -9.253  0.00  0.00     0.026 A 
HETATM   28  C   UNK     0      -2.300   4.999  -9.453  0.00  0.00     0.034 A 
HETATM   29 Cl   UNK     0      -3.674   5.939  -9.019  0.00  0.00    -0.084 Cl
HETATM   30  C   UNK     0      -1.176   5.617 -10.002  0.00  0.00     0.026 A 
HETATM   31  C   UNK     0      -0.062   4.855 -10.353  0.00  0.00     0.031 A 
ENDBRANCH  23  25
ENDBRANCH  20  23
BRANCH  22  32
HETATM   32  C   UNK     0      -0.267   0.863 -14.074  0.00  0.00     0.100 C 
HETATM   33  C   UNK     0      -1.750   1.123 -14.289  0.00  0.00     0.034 C 
HETATM   34  C   UNK     0       0.567   1.337 -15.255  0.00  0.00     0.034 C 
ENDBRANCH  22  32
ENDBRANCH   2   8
TORSDOF 4
