REMARK VINA RESULT:      -6.4      2.821      6.167
REMARK  4 active torsions:
REMARK  status: ('A' for Active; 'I' for Inactive)
REMARK    1  A    between atoms: N_3  and  C_15 
REMARK    2  A    between atoms: N_5  and  C_13 
REMARK    3  A    between atoms: N_5  and  C_23 
REMARK    4  A    between atoms: N_6  and  C_17 
ROOT
HETATM    1 Cl   UNK     0      -0.670   3.588  -8.915  0.00  0.00    -0.084 Cl
HETATM    2  C   UNK     0       0.773  -0.627  -9.634  0.00  0.00     0.040 A 
HETATM    3  C   UNK     0       1.625   0.454  -9.867  0.00  0.00     0.031 A 
HETATM    4  C   UNK     0      -0.527  -0.401  -9.177  0.00  0.00     0.031 A 
HETATM    5  C   UNK     0       1.180   1.756  -9.645  0.00  0.00     0.026 A 
HETATM    6  C   UNK     0      -0.973   0.902  -8.956  0.00  0.00     0.026 A 
HETATM    7  C   UNK     0      -0.120   1.980  -9.189  0.00  0.00     0.034 A 
ENDROOT
BRANCH   2   8
HETATM    8  N   UNK     0       1.223  -1.942  -9.858  0.00  0.00    -0.307 N 
HETATM    9  C   UNK     0       1.087  -2.509 -11.140  0.00  0.00     0.071 A 
HETATM   10  C   UNK     0       1.589  -3.912 -11.294  0.00  0.00     0.087 A 
HETATM   11  C   UNK     0       0.561  -1.920 -12.229  0.00  0.00     0.066 A 
HETATM   12  N   UNK     0       2.127  -4.609 -10.341  0.00  0.00    -0.244 NA
HETATM   13  C   UNK     0       1.469  -4.555 -12.625  0.00  0.00     0.066 A 
HETATM   14  C   UNK     0       2.255  -4.028  -9.071  0.00  0.00     0.084 A 
HETATM   15  C   UNK     0       1.817  -2.716  -8.804  0.00  0.00     0.069 A 
HETATM   16  C   UNK     0       2.838  -4.796  -8.053  0.00  0.00     0.034 A 
HETATM   17  C   UNK     0       1.980  -2.213  -7.498  0.00  0.00     0.032 A 
HETATM   18  C   UNK     0       2.562  -2.988  -6.492  0.00  0.00     0.002 A 
HETATM   19  C   UNK     0       2.992  -4.280  -6.770  0.00  0.00     0.002 A 
HETATM   20  C   UNK     0       0.942  -3.955 -13.696  0.00  0.00     0.063 A 
HETATM   21  C   UNK     0       0.444  -2.562 -13.561  0.00  0.00     0.080 A 
HETATM   22  N   UNK     0      -0.076  -1.933 -14.570  0.00  0.00    -0.283 NA
BRANCH  20  23
HETATM   23  N   UNK     0       0.826  -4.534 -14.927  0.00  0.00    -0.354 N 
HETATM   24  H   UNK     0       1.228  -4.015 -15.700  0.00  0.00     0.166 HD
BRANCH  23  25
HETATM   25  C   UNK     0       0.168  -5.720 -15.270  0.00  0.00     0.032 A 
HETATM   26  C   UNK     0      -1.208  -5.857 -15.044  0.00  0.00     0.031 A 
HETATM   27  C   UNK     0      -1.864  -7.040 -15.385  0.00  0.00     0.026 A 
HETATM   28  C   UNK     0      -1.150  -8.095 -15.954  0.00  0.00     0.034 A 
HETATM   29 Cl   UNK     0      -1.960  -9.553 -16.377  0.00  0.00    -0.084 Cl
HETATM   30  C   UNK     0       0.220  -7.966 -16.183  0.00  0.00     0.026 A 
HETATM   31  C   UNK     0       0.876  -6.784 -15.841  0.00  0.00     0.031 A 
ENDBRANCH  23  25
ENDBRANCH  20  23
BRANCH  22  32
HETATM   32  C   UNK     0      -0.514  -0.581 -14.267  0.00  0.00     0.100 C 
HETATM   33  C   UNK     0       0.380   0.404 -15.005  0.00  0.00     0.034 C 
HETATM   34  C   UNK     0      -1.973  -0.432 -14.672  0.00  0.00     0.034 C 
ENDBRANCH  22  32
ENDBRANCH   2   8
TORSDOF 4
