REMARK VINA RESULT:      -5.1      3.255      6.136
REMARK  4 active torsions:
REMARK  status: ('A' for Active; 'I' for Inactive)
REMARK    1  A    between atoms: N_3  and  C_15 
REMARK    2  A    between atoms: N_5  and  C_13 
REMARK    3  A    between atoms: N_5  and  C_23 
REMARK    4  A    between atoms: N_6  and  C_17 
ROOT
HETATM    1 Cl   UNK     0       2.818   2.870 -11.090  0.00  0.00    -0.084 Cl
HETATM    2  C   UNK     0       2.212  -1.591 -10.772  0.00  0.00     0.040 A 
HETATM    3  C   UNK     0       3.237  -1.079 -11.569  0.00  0.00     0.031 A 
HETATM    4  C   UNK     0       1.375  -0.719 -10.072  0.00  0.00     0.031 A 
HETATM    5  C   UNK     0       3.425   0.299 -11.667  0.00  0.00     0.026 A 
HETATM    6  C   UNK     0       1.562   0.660 -10.171  0.00  0.00     0.026 A 
HETATM    7  C   UNK     0       2.587   1.169 -10.968  0.00  0.00     0.034 A 
ENDROOT
BRANCH   2   8
HETATM    8  N   UNK     0       2.023  -2.982 -10.671  0.00  0.00    -0.307 N 
HETATM    9  C   UNK     0       1.206  -3.636 -11.613  0.00  0.00     0.071 A 
HETATM   10  C   UNK     0       1.055  -5.116 -11.437  0.00  0.00     0.087 A 
HETATM   11  C   UNK     0       0.557  -3.071 -12.647  0.00  0.00     0.066 A 
HETATM   12  N   UNK     0       1.621  -5.806 -10.493  0.00  0.00    -0.244 NA
HETATM   13  C   UNK     0       0.204  -5.853 -12.402  0.00  0.00     0.066 A 
HETATM   14  C   UNK     0       2.432  -5.137  -9.565  0.00  0.00     0.084 A 
HETATM   15  C   UNK     0       2.647  -3.746  -9.628  0.00  0.00     0.069 A 
HETATM   16  C   UNK     0       3.036  -5.897  -8.554  0.00  0.00     0.034 A 
HETATM   17  C   UNK     0       3.473  -3.156  -8.651  0.00  0.00     0.032 A 
HETATM   18  C   UNK     0       4.069  -3.924  -7.648  0.00  0.00     0.002 A 
HETATM   19  C   UNK     0       3.850  -5.295  -7.599  0.00  0.00     0.002 A 
HETATM   20  C   UNK     0      -0.435  -5.274 -13.423  0.00  0.00     0.063 A 
HETATM   21  C   UNK     0      -0.292  -3.808 -13.615  0.00  0.00     0.080 A 
HETATM   22  N   UNK     0      -0.890  -3.197 -14.592  0.00  0.00    -0.283 NA
BRANCH  20  23
HETATM   23  N   UNK     0      -1.220  -5.939 -14.319  0.00  0.00    -0.354 N 
HETATM   24  H   UNK     0      -1.298  -5.517 -15.238  0.00  0.00     0.166 HD
BRANCH  23  25
HETATM   25  C   UNK     0      -1.984  -7.094 -14.116  0.00  0.00     0.032 A 
HETATM   26  C   UNK     0      -3.033  -7.094 -13.187  0.00  0.00     0.031 A 
HETATM   27  C   UNK     0      -3.794  -8.245 -12.983  0.00  0.00     0.026 A 
HETATM   28  C   UNK     0      -3.513  -9.405 -13.706  0.00  0.00     0.034 A 
HETATM   29 Cl   UNK     0      -4.453 -10.824 -13.455  0.00  0.00    -0.084 Cl
HETATM   30  C   UNK     0      -2.470  -9.412 -14.633  0.00  0.00     0.026 A 
HETATM   31  C   UNK     0      -1.708  -8.262 -14.836  0.00  0.00     0.031 A 
ENDBRANCH  23  25
ENDBRANCH  20  23
BRANCH  22  32
HETATM   32  C   UNK     0      -0.646  -1.765 -14.635  0.00  0.00     0.100 C 
HETATM   33  C   UNK     0       0.118  -1.432 -15.907  0.00  0.00     0.034 C 
HETATM   34  C   UNK     0      -1.980  -1.035 -14.570  0.00  0.00     0.034 C 
ENDBRANCH  22  32
ENDBRANCH   2   8
TORSDOF 4
