MODEL 1
REMARK VINA RESULT:      -7.5      0.000      0.000
REMARK  3 active torsions:
REMARK  status: ('A' for Active; 'I' for Inactive)
REMARK    1  A    between atoms: O_1  and  C_14 
REMARK    2  A    between atoms: O_2  and  C_17 
REMARK    3  A    between atoms: O_3  and  C_21 
ROOT
HETATM    1  O   UNK     0     -13.833  -5.924  -1.684  0.00  0.00    -0.386 OA
HETATM    2  C   UNK     0     -13.712  -4.558  -2.048  0.00  0.00     0.202 C 
ENDROOT
BRANCH   1   3
HETATM    3  C   UNK     0     -12.713  -6.360  -0.921  0.00  0.00     0.149 C 
HETATM    4  C   UNK     0     -12.346  -7.836  -1.257  0.00  0.00     0.038 C 
HETATM    5  C   UNK     0     -10.862  -8.118  -0.786  0.00  0.00    -0.026 C 
HETATM    6  C   UNK     0     -13.474  -8.939  -0.893  0.00  0.00    -0.006 C 
HETATM    7  C   UNK     0      -9.865  -7.123  -1.631  0.00  0.00    -0.013 C 
HETATM    8  C   UNK     0     -10.492  -9.606  -1.011  0.00  0.00     0.011 C 
HETATM    9  C   UNK     0     -10.707  -7.846   0.745  0.00  0.00     0.016 C 
HETATM   10  C   UNK     0     -10.337  -5.660  -1.496  0.00  0.00    -0.067 C 
HETATM   11  C   UNK     0      -8.389  -7.299  -1.151  0.00  0.00     0.015 C 
HETATM   12  C   UNK     0      -9.883  -7.456  -3.154  0.00  0.00     0.021 C 
HETATM   13  C   UNK     0      -9.355  -4.498  -1.739  0.00  0.00     0.027 C 
HETATM   14  C   UNK     0     -11.607  -5.368  -1.151  0.00  0.00     0.009 C 
HETATM   15  C   UNK     0      -7.983  -4.770  -1.053  0.00  0.00    -0.036 C 
HETATM   16  C   UNK     0      -9.233  -4.090  -3.253  0.00  0.00    -0.006 C 
HETATM   17  C   UNK     0      -7.445  -6.146  -1.509  0.00  0.00     0.011 C 
HETATM   18  C   UNK     0      -6.959  -3.659  -1.387  0.00  0.00     0.010 C 
HETATM   19  C   UNK     0      -8.137  -4.746   0.491  0.00  0.00     0.016 C 
HETATM   20  C   UNK     0      -6.852  -3.329  -2.866  0.00  0.00     0.005 C 
HETATM   21  C   UNK     0      -8.214  -2.934  -3.444  0.00  0.00    -0.014 C 
HETATM   22  C   UNK     0      -8.027  -2.529  -4.911  0.00  0.00     0.010 C 
HETATM   23  C   UNK     0     -10.602  -3.721  -3.849  0.00  0.00     0.011 C 
HETATM   24  C   UNK     0     -11.533 -10.592  -0.493  0.00  0.00     0.007 C 
HETATM   25  C   UNK     0     -12.885 -10.367  -1.194  0.00  0.00     0.007 C 
HETATM   26  C   UNK     0     -13.891 -11.578  -1.029  0.00  0.00    -0.017 C 
HETATM   27  C   UNK     0     -15.336 -11.188  -1.474  0.00  0.00     0.128 C 
HETATM   28  C   UNK     0     -13.419 -12.711  -1.990  0.00  0.00     0.018 C 
HETATM   29  C   UNK     0     -13.893 -12.191   0.388  0.00  0.00     0.018 C 
HETATM   30  C   UNK     0     -15.334 -10.009  -2.443  0.00  0.00     0.065 C 
HETATM   31  C   UNK     0     -14.715  -8.727  -1.858  0.00  0.00     0.129 C 
HETATM   32  C   UNK     0     -13.936  -8.815   0.580  0.00  0.00     0.019 C 
BRANCH  27  33
HETATM   33  O   UNK     0     -16.181 -10.889  -0.367  0.00  0.00    -0.395 OA
HETATM   34  H   UNK     0     -17.102 -10.970  -0.667  0.00  0.00     0.210 HD
ENDBRANCH  27  33
BRANCH  31  35
HETATM   35  O   UNK     0     -15.740  -7.970  -1.211  0.00  0.00    -0.395 OA
HETATM   36  H   UNK     0     -16.585  -8.426  -1.359  0.00  0.00     0.210 HD
ENDBRANCH  31  35
ENDBRANCH   1   3
TORSDOF 3
ENDMDL
MODEL 2
REMARK VINA RESULT:      -7.5     11.112     14.581
REMARK  3 active torsions:
REMARK  status: ('A' for Active; 'I' for Inactive)
REMARK    1  A    between atoms: O_1  and  C_14 
REMARK    2  A    between atoms: O_2  and  C_17 
REMARK    3  A    between atoms: O_3  and  C_21 
ROOT
HETATM    1  O   UNK     0      -4.215  -1.246 -11.656  0.00  0.00    -0.386 OA
HETATM    2  C   UNK     0      -4.226  -0.359 -12.763  0.00  0.00     0.202 C 
ENDROOT
BRANCH   1   3
HETATM    3  C   UNK     0      -3.174  -2.211 -11.772  0.00  0.00     0.149 C 
HETATM    4  C   UNK     0      -3.085  -3.096 -10.494  0.00  0.00     0.038 C 
HETATM    5  C   UNK     0      -2.290  -4.420 -10.839  0.00  0.00    -0.026 C 
HETATM    6  C   UNK     0      -2.695  -2.318  -9.129  0.00  0.00    -0.006 C 
HETATM    7  C   UNK     0      -3.138  -5.237 -11.984  0.00  0.00    -0.013 C 
HETATM    8  C   UNK     0      -2.091  -5.283  -9.567  0.00  0.00     0.011 C 
HETATM    9  C   UNK     0      -0.862  -4.084 -11.377  0.00  0.00     0.016 C 
HETATM   10  C   UNK     0      -3.437  -4.311 -13.183  0.00  0.00    -0.067 C 
HETATM   11  C   UNK     0      -2.361  -6.517 -12.425  0.00  0.00     0.015 C 
HETATM   12  C   UNK     0      -4.519  -5.716 -11.440  0.00  0.00     0.021 C 
HETATM   13  C   UNK     0      -3.752  -4.906 -14.568  0.00  0.00     0.027 C 
HETATM   14  C   UNK     0      -3.415  -2.970 -13.048  0.00  0.00     0.009 C 
HETATM   15  C   UNK     0      -2.776  -6.069 -14.915  0.00  0.00    -0.036 C 
HETATM   16  C   UNK     0      -5.269  -5.278 -14.758  0.00  0.00    -0.006 C 
HETATM   17  C   UNK     0      -2.791  -7.110 -13.771  0.00  0.00     0.011 C 
HETATM   18  C   UNK     0      -3.158  -6.743 -16.255  0.00  0.00     0.010 C 
HETATM   19  C   UNK     0      -1.337  -5.525 -15.116  0.00  0.00     0.016 C 
HETATM   20  C   UNK     0      -4.626  -7.117 -16.372  0.00  0.00     0.005 C 
HETATM   21  C   UNK     0      -5.525  -5.896 -16.158  0.00  0.00    -0.014 C 
HETATM   22  C   UNK     0      -6.984  -6.317 -16.375  0.00  0.00     0.010 C 
HETATM   23  C   UNK     0      -6.181  -4.064 -14.515  0.00  0.00     0.011 C 
HETATM   24  C   UNK     0      -1.565  -4.508  -8.364  0.00  0.00     0.007 C 
HETATM   25  C   UNK     0      -2.542  -3.382  -7.980  0.00  0.00     0.007 C 
HETATM   26  C   UNK     0      -2.294  -2.800  -6.528  0.00  0.00    -0.017 C 
HETATM   27  C   UNK     0      -3.081  -1.471  -6.301  0.00  0.00     0.128 C 
HETATM   28  C   UNK     0      -2.860  -3.834  -5.508  0.00  0.00     0.018 C 
HETATM   29  C   UNK     0      -0.800  -2.627  -6.178  0.00  0.00     0.018 C 
HETATM   30  C   UNK     0      -4.278  -1.351  -7.240  0.00  0.00     0.065 C 
HETATM   31  C   UNK     0      -3.899  -1.365  -8.732  0.00  0.00     0.129 C 
HETATM   32  C   UNK     0      -1.405  -1.479  -9.301  0.00  0.00     0.019 C 
BRANCH  27  33
HETATM   33  O   UNK     0      -2.253  -0.321  -6.441  0.00  0.00    -0.395 OA
HETATM   34  H   UNK     0      -2.828   0.463  -6.427  0.00  0.00     0.210 HD
ENDBRANCH  27  33
BRANCH  31  35
HETATM   35  O   UNK     0      -3.650  -0.024  -9.160  0.00  0.00    -0.395 OA
HETATM   36  H   UNK     0      -4.360   0.537  -8.806  0.00  0.00     0.210 HD
ENDBRANCH  31  35
ENDBRANCH   1   3
TORSDOF 3
ENDMDL
MODEL 3
REMARK VINA RESULT:      -7.0     12.607     14.638
REMARK  3 active torsions:
REMARK  status: ('A' for Active; 'I' for Inactive)
REMARK    1  A    between atoms: O_1  and  C_14 
REMARK    2  A    between atoms: O_2  and  C_17 
REMARK    3  A    between atoms: O_3  and  C_21 
ROOT
HETATM    1  O   UNK     0      -5.279  -2.194 -11.153  0.00  0.00    -0.386 OA
HETATM    2  C   UNK     0      -6.066  -1.146 -10.608  0.00  0.00     0.202 C 
ENDROOT
BRANCH   1   3
HETATM    3  C   UNK     0      -3.971  -2.208 -10.591  0.00  0.00     0.149 C 
HETATM    4  C   UNK     0      -2.959  -2.909 -11.546  0.00  0.00     0.038 C 
HETATM    5  C   UNK     0      -1.490  -2.485 -11.139  0.00  0.00    -0.026 C 
HETATM    6  C   UNK     0      -3.238  -4.476 -11.835  0.00  0.00    -0.006 C 
HETATM    7  C   UNK     0      -1.358  -0.859 -11.335  0.00  0.00    -0.013 C 
HETATM    8  C   UNK     0      -0.446  -3.239 -12.001  0.00  0.00     0.011 C 
HETATM    9  C   UNK     0      -1.197  -2.863  -9.652  0.00  0.00     0.016 C 
HETATM   10  C   UNK     0      -2.491  -0.140 -10.572  0.00  0.00    -0.067 C 
HETATM   11  C   UNK     0       0.050  -0.368 -10.871  0.00  0.00     0.015 C 
HETATM   12  C   UNK     0      -1.504  -0.450 -12.833  0.00  0.00     0.021 C 
HETATM   13  C   UNK     0      -2.340   1.337 -10.161  0.00  0.00     0.027 C 
HETATM   14  C   UNK     0      -3.625  -0.788 -10.238  0.00  0.00     0.009 C 
HETATM   15  C   UNK     0      -0.925   1.613  -9.570  0.00  0.00    -0.036 C 
HETATM   16  C   UNK     0      -2.758   2.346 -11.293  0.00  0.00    -0.006 C 
HETATM   17  C   UNK     0       0.152   1.130 -10.569  0.00  0.00     0.011 C 
HETATM   18  C   UNK     0      -0.730   3.117  -9.259  0.00  0.00     0.010 C 
HETATM   19  C   UNK     0      -0.755   0.880  -8.212  0.00  0.00     0.016 C 
HETATM   20  C   UNK     0      -1.113   4.046 -10.398  0.00  0.00     0.005 C 
HETATM   21  C   UNK     0      -2.562   3.816 -10.836  0.00  0.00    -0.014 C 
HETATM   22  C   UNK     0      -2.915   4.839 -11.923  0.00  0.00     0.010 C 
HETATM   23  C   UNK     0      -4.203   2.102 -11.760  0.00  0.00     0.011 C 
HETATM   24  C   UNK     0      -0.684  -4.743 -12.093  0.00  0.00     0.007 C 
HETATM   25  C   UNK     0      -2.061  -5.034 -12.718  0.00  0.00     0.007 C 
HETATM   26  C   UNK     0      -2.221  -6.525 -13.223  0.00  0.00    -0.017 C 
HETATM   27  C   UNK     0      -3.710  -6.862 -13.552  0.00  0.00     0.128 C 
HETATM   28  C   UNK     0      -1.428  -6.655 -14.558  0.00  0.00     0.018 C 
HETATM   29  C   UNK     0      -1.616  -7.572 -12.262  0.00  0.00     0.018 C 
HETATM   30  C   UNK     0      -4.523  -5.606 -13.855  0.00  0.00     0.065 C 
HETATM   31  C   UNK     0      -4.568  -4.602 -12.689  0.00  0.00     0.129 C 
HETATM   32  C   UNK     0      -3.388  -5.279 -10.519  0.00  0.00     0.019 C 
BRANCH  27  33
HETATM   33  O   UNK     0      -4.343  -7.596 -12.509  0.00  0.00    -0.395 OA
HETATM   34  H   UNK     0      -5.033  -7.030 -12.124  0.00  0.00     0.210 HD
ENDBRANCH  27  33
BRANCH  31  35
HETATM   35  O   UNK     0      -5.683  -4.913 -11.851  0.00  0.00    -0.395 OA
HETATM   36  H   UNK     0      -6.077  -5.741 -12.175  0.00  0.00     0.210 HD
ENDBRANCH  31  35
ENDBRANCH   1   3
TORSDOF 3
ENDMDL
MODEL 4
REMARK VINA RESULT:      -6.9      8.874     15.106
REMARK  3 active torsions:
REMARK  status: ('A' for Active; 'I' for Inactive)
REMARK    1  A    between atoms: O_1  and  C_14 
REMARK    2  A    between atoms: O_2  and  C_17 
REMARK    3  A    between atoms: O_3  and  C_21 
ROOT
HETATM    1  O   UNK     0      -4.727   0.240  -9.649  0.00  0.00    -0.386 OA
HETATM    2  C   UNK     0      -5.867  -0.605  -9.644  0.00  0.00     0.202 C 
ENDROOT
BRANCH   1   3
HETATM    3  C   UNK     0      -3.524  -0.509  -9.508  0.00  0.00     0.149 C 
HETATM    4  C   UNK     0      -2.355   0.395  -9.016  0.00  0.00     0.038 C 
HETATM    5  C   UNK     0      -1.213  -0.522  -8.416  0.00  0.00    -0.026 C 
HETATM    6  C   UNK     0      -1.916   1.583 -10.023  0.00  0.00    -0.006 C 
HETATM    7  C   UNK     0      -1.834  -1.326  -7.125  0.00  0.00    -0.013 C 
HETATM    8  C   UNK     0       0.013   0.333  -8.007  0.00  0.00     0.011 C 
HETATM    9  C   UNK     0      -0.707  -1.545  -9.483  0.00  0.00     0.016 C 
HETATM   10  C   UNK     0      -3.129  -2.062  -7.532  0.00  0.00    -0.067 C 
HETATM   11  C   UNK     0      -0.774  -2.311  -6.538  0.00  0.00     0.015 C 
HETATM   12  C   UNK     0      -2.222  -0.348  -5.975  0.00  0.00     0.021 C 
HETATM   13  C   UNK     0      -3.635  -3.262  -6.710  0.00  0.00     0.027 C 
HETATM   14  C   UNK     0      -3.834  -1.680  -8.616  0.00  0.00     0.009 C 
HETATM   15  C   UNK     0      -2.466  -4.226  -6.347  0.00  0.00    -0.036 C 
HETATM   16  C   UNK     0      -4.517  -2.848  -5.476  0.00  0.00    -0.006 C 
HETATM   17  C   UNK     0      -1.339  -3.427  -5.653  0.00  0.00     0.011 C 
HETATM   18  C   UNK     0      -2.950  -5.374  -5.429  0.00  0.00     0.010 C 
HETATM   19  C   UNK     0      -1.918  -4.915  -7.625  0.00  0.00     0.016 C 
HETATM   20  C   UNK     0      -3.765  -4.917  -4.232  0.00  0.00     0.005 C 
HETATM   21  C   UNK     0      -4.978  -4.092  -4.671  0.00  0.00    -0.014 C 
HETATM   22  C   UNK     0      -5.806  -3.736  -3.430  0.00  0.00     0.010 C 
HETATM   23  C   UNK     0      -5.721  -1.993  -5.906  0.00  0.00     0.011 C 
HETATM   24  C   UNK     0       0.470   1.320  -9.076  0.00  0.00     0.007 C 
HETATM   25  C   UNK     0      -0.660   2.309  -9.414  0.00  0.00     0.007 C 
HETATM   26  C   UNK     0      -0.161   3.595 -10.192  0.00  0.00    -0.017 C 
HETATM   27  C   UNK     0      -1.355   4.405 -10.786  0.00  0.00     0.128 C 
HETATM   28  C   UNK     0       0.538   4.525  -9.155  0.00  0.00     0.018 C 
HETATM   29  C   UNK     0       0.897   3.290 -11.275  0.00  0.00     0.018 C 
HETATM   30  C   UNK     0      -2.659   4.124 -10.044  0.00  0.00     0.065 C 
HETATM   31  C   UNK     0      -3.090   2.647 -10.089  0.00  0.00     0.129 C 
HETATM   32  C   UNK     0      -1.625   1.043 -11.446  0.00  0.00     0.019 C 
BRANCH  27  33
HETATM   33  O   UNK     0      -1.539   4.158 -12.176  0.00  0.00    -0.395 OA
HETATM   34  H   UNK     0      -0.680   3.890 -12.546  0.00  0.00     0.210 HD
ENDBRANCH  27  33
BRANCH  31  35
HETATM   35  O   UNK     0      -3.904   2.436 -11.244  0.00  0.00    -0.395 OA
HETATM   36  H   UNK     0      -3.385   1.919 -11.884  0.00  0.00     0.210 HD
ENDBRANCH  31  35
ENDBRANCH   1   3
TORSDOF 3
ENDMDL
MODEL 5
REMARK VINA RESULT:      -6.7      8.948     12.887
REMARK  3 active torsions:
REMARK  status: ('A' for Active; 'I' for Inactive)
REMARK    1  A    between atoms: O_1  and  C_14 
REMARK    2  A    between atoms: O_2  and  C_17 
REMARK    3  A    between atoms: O_3  and  C_21 
ROOT
HETATM    1  O   UNK     0      -6.438  -1.770  -6.106  0.00  0.00    -0.386 OA
HETATM    2  C   UNK     0      -7.578  -1.570  -5.284  0.00  0.00     0.202 C 
ENDROOT
BRANCH   1   3
HETATM    3  C   UNK     0      -6.205  -0.649  -6.953  0.00  0.00     0.149 C 
HETATM    4  C   UNK     0      -5.241  -1.019  -8.119  0.00  0.00     0.038 C 
HETATM    5  C   UNK     0      -5.391   0.055  -9.271  0.00  0.00    -0.026 C 
HETATM    6  C   UNK     0      -3.744  -1.451  -7.681  0.00  0.00    -0.006 C 
HETATM    7  C   UNK     0      -6.936  -0.007  -9.825  0.00  0.00    -0.013 C 
HETATM    8  C   UNK     0      -4.375  -0.220 -10.409  0.00  0.00     0.011 C 
HETATM    9  C   UNK     0      -5.080   1.489  -8.733  0.00  0.00     0.016 C 
HETATM   10  C   UNK     0      -7.927   0.138  -8.651  0.00  0.00    -0.067 C 
HETATM   11  C   UNK     0      -7.167   1.090 -10.912  0.00  0.00     0.015 C 
HETATM   12  C   UNK     0      -7.246  -1.378 -10.500  0.00  0.00     0.021 C 
HETATM   13  C   UNK     0      -9.371   0.612  -8.902  0.00  0.00     0.027 C 
HETATM   14  C   UNK     0      -7.549  -0.133  -7.385  0.00  0.00     0.009 C 
HETATM   15  C   UNK     0      -9.401   1.818  -9.888  0.00  0.00    -0.036 C 
HETATM   16  C   UNK     0     -10.350  -0.552  -9.300  0.00  0.00    -0.006 C 
HETATM   17  C   UNK     0      -8.634   1.446 -11.178  0.00  0.00     0.011 C 
HETATM   18  C   UNK     0     -10.854   2.226 -10.230  0.00  0.00     0.010 C 
HETATM   19  C   UNK     0      -8.759   3.069  -9.231  0.00  0.00     0.016 C 
HETATM   20  C   UNK     0     -11.749   1.070 -10.644  0.00  0.00     0.005 C 
HETATM   21  C   UNK     0     -11.782  -0.016  -9.566  0.00  0.00    -0.014 C 
HETATM   22  C   UNK     0     -12.766  -1.109 -10.001  0.00  0.00     0.010 C 
HETATM   23  C   UNK     0     -10.367  -1.663  -8.236  0.00  0.00     0.011 C 
HETATM   24  C   UNK     0      -2.948  -0.457  -9.926  0.00  0.00     0.007 C 
HETATM   25  C   UNK     0      -2.893  -1.675  -8.986  0.00  0.00     0.007 C 
HETATM   26  C   UNK     0      -1.429  -2.237  -8.767  0.00  0.00    -0.017 C 
HETATM   27  C   UNK     0      -1.375  -3.250  -7.581  0.00  0.00     0.128 C 
HETATM   28  C   UNK     0      -1.037  -3.030 -10.050  0.00  0.00     0.018 C 
HETATM   29  C   UNK     0      -0.361  -1.133  -8.603  0.00  0.00     0.018 C 
HETATM   30  C   UNK     0      -2.740  -3.871  -7.301  0.00  0.00     0.065 C 
HETATM   31  C   UNK     0      -3.822  -2.842  -6.925  0.00  0.00     0.129 C 
HETATM   32  C   UNK     0      -3.095  -0.393  -6.755  0.00  0.00     0.019 C 
BRANCH  27  33
HETATM   33  O   UNK     0      -0.869  -2.661  -6.388  0.00  0.00    -0.395 OA
HETATM   34  H   UNK     0      -1.226  -3.162  -5.635  0.00  0.00     0.210 HD
ENDBRANCH  27  33
BRANCH  31  35
HETATM   35  O   UNK     0      -3.810  -2.653  -5.508  0.00  0.00    -0.395 OA
HETATM   36  H   UNK     0      -2.887  -2.527  -5.233  0.00  0.00     0.210 HD
ENDBRANCH  31  35
ENDBRANCH   1   3
TORSDOF 3
ENDMDL
MODEL 6
REMARK VINA RESULT:      -6.6     12.497     16.934
REMARK  3 active torsions:
REMARK  status: ('A' for Active; 'I' for Inactive)
REMARK    1  A    between atoms: O_1  and  C_14 
REMARK    2  A    between atoms: O_2  and  C_17 
REMARK    3  A    between atoms: O_3  and  C_21 
ROOT
HETATM    1  O   UNK     0      -3.012  -1.352  -9.302  0.00  0.00    -0.386 OA
HETATM    2  C   UNK     0      -3.652  -2.499  -8.763  0.00  0.00     0.202 C 
ENDROOT
BRANCH   1   3
HETATM    3  C   UNK     0      -3.134  -1.307 -10.720  0.00  0.00     0.149 C 
HETATM    4  C   UNK     0      -2.023  -0.415 -11.350  0.00  0.00     0.038 C 
HETATM    5  C   UNK     0      -1.886  -0.771 -12.885  0.00  0.00    -0.026 C 
HETATM    6  C   UNK     0      -2.066   1.151 -10.940  0.00  0.00    -0.006 C 
HETATM    7  C   UNK     0      -1.426  -2.344 -13.002  0.00  0.00    -0.013 C 
HETATM    8  C   UNK     0      -0.860   0.166 -13.573  0.00  0.00     0.011 C 
HETATM    9  C   UNK     0      -3.246  -0.562 -13.625  0.00  0.00     0.016 C 
HETATM   10  C   UNK     0      -2.392  -3.240 -12.197  0.00  0.00    -0.067 C 
HETATM   11  C   UNK     0      -1.351  -2.778 -14.499  0.00  0.00     0.015 C 
HETATM   12  C   UNK     0      -0.005  -2.570 -12.398  0.00  0.00     0.021 C 
HETATM   13  C   UNK     0      -2.516  -4.741 -12.521  0.00  0.00     0.027 C 
HETATM   14  C   UNK     0      -3.152  -2.729 -11.208  0.00  0.00     0.009 C 
HETATM   15  C   UNK     0      -2.590  -4.978 -14.059  0.00  0.00    -0.036 C 
HETATM   16  C   UNK     0      -1.438  -5.627 -11.797  0.00  0.00    -0.006 C 
HETATM   17  C   UNK     0      -1.386  -4.290 -14.743  0.00  0.00     0.011 C 
HETATM   18  C   UNK     0      -2.603  -6.489 -14.393  0.00  0.00     0.010 C 
HETATM   19  C   UNK     0      -3.918  -4.412 -14.629  0.00  0.00     0.016 C 
HETATM   20  C   UNK     0      -1.518  -7.294 -13.698  0.00  0.00     0.005 C 
HETATM   21  C   UNK     0      -1.593  -7.124 -12.178  0.00  0.00    -0.014 C 
HETATM   22  C   UNK     0      -0.534  -8.026 -11.531  0.00  0.00     0.010 C 
HETATM   23  C   UNK     0      -1.485  -5.440 -10.271  0.00  0.00     0.011 C 
HETATM   24  C   UNK     0      -1.066   1.645 -13.268  0.00  0.00     0.007 C 
HETATM   25  C   UNK     0      -0.950   1.905 -11.754  0.00  0.00     0.007 C 
HETATM   26  C   UNK     0      -0.743   3.432 -11.390  0.00  0.00    -0.017 C 
HETATM   27  C   UNK     0      -0.946   3.690  -9.864  0.00  0.00     0.128 C 
HETATM   28  C   UNK     0       0.740   3.790 -11.710  0.00  0.00     0.018 C 
HETATM   29  C   UNK     0      -1.608   4.392 -12.236  0.00  0.00     0.018 C 
HETATM   30  C   UNK     0      -0.734   2.424  -9.040  0.00  0.00     0.065 C 
HETATM   31  C   UNK     0      -1.697   1.280  -9.404  0.00  0.00     0.129 C 
HETATM   32  C   UNK     0      -3.465   1.766 -11.192  0.00  0.00     0.019 C 
BRANCH  27  33
HETATM   33  O   UNK     0      -2.229   4.235  -9.574  0.00  0.00    -0.395 OA
HETATM   34  H   UNK     0      -2.887   3.532  -9.706  0.00  0.00     0.210 HD
ENDBRANCH  27  33
BRANCH  31  35
HETATM   35  O   UNK     0      -2.877   1.394  -8.605  0.00  0.00    -0.395 OA
HETATM   36  H   UNK     0      -3.265   2.269  -8.772  0.00  0.00     0.210 HD
ENDBRANCH  31  35
ENDBRANCH   1   3
TORSDOF 3
ENDMDL
MODEL 7
REMARK VINA RESULT:      -6.4     11.081     13.115
REMARK  3 active torsions:
REMARK  status: ('A' for Active; 'I' for Inactive)
REMARK    1  A    between atoms: O_1  and  C_14 
REMARK    2  A    between atoms: O_2  and  C_17 
REMARK    3  A    between atoms: O_3  and  C_21 
ROOT
HETATM    1  O   UNK     0      -5.829  -2.381 -11.394  0.00  0.00    -0.386 OA
HETATM    2  C   UNK     0      -4.879  -3.414 -11.605  0.00  0.00     0.202 C 
ENDROOT
BRANCH   1   3
HETATM    3  C   UNK     0      -5.216  -1.214 -10.855  0.00  0.00     0.149 C 
HETATM    4  C   UNK     0      -6.240  -0.368 -10.040  0.00  0.00     0.038 C 
HETATM    5  C   UNK     0      -5.451   0.612  -9.082  0.00  0.00    -0.026 C 
HETATM    6  C   UNK     0      -7.477   0.240 -10.888  0.00  0.00    -0.006 C 
HETATM    7  C   UNK     0      -4.573  -0.299  -8.035  0.00  0.00    -0.013 C 
HETATM    8  C   UNK     0      -6.433   1.543  -8.326  0.00  0.00     0.011 C 
HETATM    9  C   UNK     0      -4.499   1.541  -9.902  0.00  0.00     0.016 C 
HETATM   10  C   UNK     0      -3.701  -1.309  -8.814  0.00  0.00    -0.067 C 
HETATM   11  C   UNK     0      -3.707   0.616  -7.112  0.00  0.00     0.015 C 
HETATM   12  C   UNK     0      -5.493  -1.139  -7.097  0.00  0.00     0.021 C 
HETATM   13  C   UNK     0      -2.446  -1.919  -8.163  0.00  0.00     0.027 C 
HETATM   14  C   UNK     0      -4.011  -1.666 -10.076  0.00  0.00     0.009 C 
HETATM   15  C   UNK     0      -1.614  -0.832  -7.419  0.00  0.00    -0.036 C 
HETATM   16  C   UNK     0      -2.750  -3.190  -7.288  0.00  0.00    -0.006 C 
HETATM   17  C   UNK     0      -2.528  -0.080  -6.424  0.00  0.00     0.011 C 
HETATM   18  C   UNK     0      -0.413  -1.459  -6.672  0.00  0.00     0.010 C 
HETATM   19  C   UNK     0      -1.000   0.168  -8.434  0.00  0.00     0.016 C 
HETATM   20  C   UNK     0      -0.767  -2.659  -5.811  0.00  0.00     0.005 C 
HETATM   21  C   UNK     0      -1.456  -3.748  -6.638  0.00  0.00    -0.014 C 
HETATM   22  C   UNK     0      -1.708  -4.963  -5.737  0.00  0.00     0.010 C 
HETATM   23  C   UNK     0      -3.470  -4.277  -8.104  0.00  0.00     0.011 C 
HETATM   24  C   UNK     0      -7.473   2.210  -9.221  0.00  0.00     0.007 C 
HETATM   25  C   UNK     0      -8.334   1.149  -9.930  0.00  0.00     0.007 C 
HETATM   26  C   UNK     0      -9.673   1.730 -10.543  0.00  0.00    -0.017 C 
HETATM   27  C   UNK     0     -10.350   0.709 -11.511  0.00  0.00     0.128 C 
HETATM   28  C   UNK     0     -10.666   1.955  -9.364  0.00  0.00     0.018 C 
HETATM   29  C   UNK     0      -9.496   3.105 -11.223  0.00  0.00     0.018 C 
HETATM   30  C   UNK     0      -9.921  -0.725 -11.217  0.00  0.00     0.065 C 
HETATM   31  C   UNK     0      -8.405  -0.958 -11.355  0.00  0.00     0.129 C 
HETATM   32  C   UNK     0      -6.985   1.028 -12.127  0.00  0.00     0.019 C 
BRANCH  27  33
HETATM   33  O   UNK     0     -10.095   1.009 -12.879  0.00  0.00    -0.395 OA
HETATM   34  H   UNK     0      -9.263   0.572 -13.129  0.00  0.00     0.210 HD
ENDBRANCH  27  33
BRANCH  31  35
HETATM   35  O   UNK     0      -8.114  -1.331 -12.704  0.00  0.00    -0.395 OA
HETATM   36  H   UNK     0      -7.656  -0.585 -13.127  0.00  0.00     0.210 HD
ENDBRANCH  31  35
ENDBRANCH   1   3
TORSDOF 3
ENDMDL
MODEL 8
REMARK VINA RESULT:      -6.4      4.488      7.390
REMARK  3 active torsions:
REMARK  status: ('A' for Active; 'I' for Inactive)
REMARK    1  A    between atoms: O_1  and  C_14 
REMARK    2  A    between atoms: O_2  and  C_17 
REMARK    3  A    between atoms: O_3  and  C_21 
ROOT
HETATM    1  O   UNK     0      -9.381  -1.808  -2.842  0.00  0.00    -0.386 OA
HETATM    2  C   UNK     0      -9.040  -1.592  -4.203  0.00  0.00     0.202 C 
ENDROOT
BRANCH   1   3
HETATM    3  C   UNK     0     -10.764  -2.112  -2.695  0.00  0.00     0.149 C 
HETATM    4  C   UNK     0     -11.021  -2.944  -1.404  0.00  0.00     0.038 C 
HETATM    5  C   UNK     0     -12.552  -2.842  -1.022  0.00  0.00    -0.026 C 
HETATM    6  C   UNK     0     -10.330  -4.407  -1.365  0.00  0.00    -0.006 C 
HETATM    7  C   UNK     0     -12.893  -1.266  -0.707  0.00  0.00    -0.013 C 
HETATM    8  C   UNK     0     -12.870  -3.739   0.202  0.00  0.00     0.011 C 
HETATM    9  C   UNK     0     -13.450  -3.353  -2.194  0.00  0.00     0.016 C 
HETATM   10  C   UNK     0     -12.444  -0.381  -1.889  0.00  0.00    -0.067 C 
HETATM   11  C   UNK     0     -14.414  -1.089  -0.400  0.00  0.00     0.015 C 
HETATM   12  C   UNK     0     -12.121  -0.754   0.548  0.00  0.00     0.021 C 
HETATM   13  C   UNK     0     -13.067   1.012  -2.101  0.00  0.00     0.027 C 
HETATM   14  C   UNK     0     -11.513  -0.810  -2.765  0.00  0.00     0.009 C 
HETATM   15  C   UNK     0     -14.613   0.970  -1.913  0.00  0.00    -0.036 C 
HETATM   16  C   UNK     0     -12.361   2.145  -1.269  0.00  0.00    -0.006 C 
HETATM   17  C   UNK     0     -14.946   0.340  -0.540  0.00  0.00     0.011 C 
HETATM   18  C   UNK     0     -15.229   2.386  -2.015  0.00  0.00     0.010 C 
HETATM   19  C   UNK     0     -15.273   0.144  -3.049  0.00  0.00     0.016 C 
HETATM   20  C   UNK     0     -14.535   3.434  -1.163  0.00  0.00     0.005 C 
HETATM   21  C   UNK     0     -13.043   3.520  -1.499  0.00  0.00    -0.014 C 
HETATM   22  C   UNK     0     -12.418   4.651  -0.674  0.00  0.00     0.010 C 
HETATM   23  C   UNK     0     -10.856   2.218  -1.578  0.00  0.00     0.011 C 
HETATM   24  C   UNK     0     -12.324  -5.158   0.092  0.00  0.00     0.007 C 
HETATM   25  C   UNK     0     -10.790  -5.136  -0.048  0.00  0.00     0.007 C 
HETATM   26  C   UNK     0     -10.111  -6.537   0.240  0.00  0.00    -0.017 C 
HETATM   27  C   UNK     0      -8.618  -6.554  -0.215  0.00  0.00     0.128 C 
HETATM   28  C   UNK     0     -10.109  -6.746   1.784  0.00  0.00     0.018 C 
HETATM   29  C   UNK     0     -10.885  -7.734  -0.354  0.00  0.00     0.018 C 
HETATM   30  C   UNK     0      -8.029  -5.148  -0.286  0.00  0.00     0.065 C 
HETATM   31  C   UNK     0      -8.758  -4.221  -1.275  0.00  0.00     0.129 C 
HETATM   32  C   UNK     0     -10.683  -5.236  -2.625  0.00  0.00     0.019 C 
BRANCH  27  33
HETATM   33  O   UNK     0      -8.441  -7.205  -1.469  0.00  0.00    -0.395 OA
HETATM   34  H   UNK     0      -8.034  -8.072  -1.299  0.00  0.00     0.210 HD
ENDBRANCH  27  33
BRANCH  31  35
HETATM   35  O   UNK     0      -8.156  -4.351  -2.565  0.00  0.00    -0.395 OA
HETATM   36  H   UNK     0      -7.674  -5.195  -2.584  0.00  0.00     0.210 HD
ENDBRANCH  31  35
ENDBRANCH   1   3
TORSDOF 3
ENDMDL
MODEL 9
REMARK VINA RESULT:      -6.3     13.378     15.231
REMARK  3 active torsions:
REMARK  status: ('A' for Active; 'I' for Inactive)
REMARK    1  A    between atoms: O_1  and  C_14 
REMARK    2  A    between atoms: O_2  and  C_17 
REMARK    3  A    between atoms: O_3  and  C_21 
ROOT
HETATM    1  O   UNK     0      -2.856  -1.334 -14.705  0.00  0.00    -0.386 OA
HETATM    2  C   UNK     0      -1.547  -0.791 -14.630  0.00  0.00     0.202 C 
ENDROOT
BRANCH   1   3
HETATM    3  C   UNK     0      -3.428  -1.494 -13.411  0.00  0.00     0.149 C 
HETATM    4  C   UNK     0      -2.784  -2.697 -12.659  0.00  0.00     0.038 C 
HETATM    5  C   UNK     0      -3.071  -2.547 -11.110  0.00  0.00    -0.026 C 
HETATM    6  C   UNK     0      -3.018  -4.150 -13.331  0.00  0.00    -0.006 C 
HETATM    7  C   UNK     0      -2.357  -1.161 -10.593  0.00  0.00    -0.013 C 
HETATM    8  C   UNK     0      -2.534  -3.777 -10.335  0.00  0.00     0.011 C 
HETATM    9  C   UNK     0      -4.608  -2.484 -10.835  0.00  0.00     0.016 C 
HETATM   10  C   UNK     0      -2.810   0.027 -11.469  0.00  0.00    -0.067 C 
HETATM   11  C   UNK     0      -2.674  -0.917  -9.084  0.00  0.00     0.015 C 
HETATM   12  C   UNK     0      -0.805  -1.237 -10.718  0.00  0.00     0.021 C 
HETATM   13  C   UNK     0      -2.718   1.469 -10.935  0.00  0.00     0.027 C 
HETATM   14  C   UNK     0      -3.306  -0.171 -12.707  0.00  0.00     0.009 C 
HETATM   15  C   UNK     0      -3.226   1.557  -9.465  0.00  0.00    -0.036 C 
HETATM   16  C   UNK     0      -1.307   2.127 -11.155  0.00  0.00    -0.006 C 
HETATM   17  C   UNK     0      -2.471   0.522  -8.599  0.00  0.00     0.011 C 
HETATM   18  C   UNK     0      -3.032   2.979  -8.888  0.00  0.00     0.010 C 
HETATM   19  C   UNK     0      -4.753   1.285  -9.404  0.00  0.00     0.016 C 
HETATM   20  C   UNK     0      -1.641   3.554  -9.094  0.00  0.00     0.005 C 
HETATM   21  C   UNK     0      -1.262   3.567 -10.578  0.00  0.00    -0.014 C 
HETATM   22  C   UNK     0       0.110   4.237 -10.728  0.00  0.00     0.010 C 
HETATM   23  C   UNK     0      -0.905   2.117 -12.640  0.00  0.00     0.011 C 
HETATM   24  C   UNK     0      -2.933  -5.119 -10.941  0.00  0.00     0.007 C 
HETATM   25  C   UNK     0      -2.399  -5.240 -12.380  0.00  0.00     0.007 C 
HETATM   26  C   UNK     0      -2.407  -6.724 -12.932  0.00  0.00    -0.017 C 
HETATM   27  C   UNK     0      -2.165  -6.764 -14.473  0.00  0.00     0.128 C 
HETATM   28  C   UNK     0      -1.211  -7.474 -12.272  0.00  0.00     0.018 C 
HETATM   29  C   UNK     0      -3.675  -7.519 -12.549  0.00  0.00     0.018 C 
HETATM   30  C   UNK     0      -1.445  -5.512 -14.968  0.00  0.00     0.065 C 
HETATM   31  C   UNK     0      -2.215  -4.207 -14.698  0.00  0.00     0.129 C 
HETATM   32  C   UNK     0      -4.519  -4.418 -13.600  0.00  0.00     0.019 C 
BRANCH  27  33
HETATM   33  O   UNK     0      -3.372  -6.936 -15.207  0.00  0.00    -0.395 OA
HETATM   34  H   UNK     0      -3.378  -7.841 -15.563  0.00  0.00     0.210 HD
ENDBRANCH  27  33
BRANCH  31  35
HETATM   35  O   UNK     0      -3.077  -3.939 -15.806  0.00  0.00    -0.395 OA
HETATM   36  H   UNK     0      -3.778  -4.612 -15.807  0.00  0.00     0.210 HD
ENDBRANCH  31  35
ENDBRANCH   1   3
TORSDOF 3
ENDMDL
