REMARK VINA RESULT:      -7.5      0.000      0.000
REMARK  3 active torsions:
REMARK  status: ('A' for Active; 'I' for Inactive)
REMARK    1  A    between atoms: O_1  and  C_14 
REMARK    2  A    between atoms: O_2  and  C_17 
REMARK    3  A    between atoms: O_3  and  C_21 
ROOT
HETATM    1  O   UNK     0     -13.833  -5.924  -1.684  0.00  0.00    -0.386 OA
HETATM    2  C   UNK     0     -13.712  -4.558  -2.048  0.00  0.00     0.202 C 
ENDROOT
BRANCH   1   3
HETATM    3  C   UNK     0     -12.713  -6.360  -0.921  0.00  0.00     0.149 C 
HETATM    4  C   UNK     0     -12.346  -7.836  -1.257  0.00  0.00     0.038 C 
HETATM    5  C   UNK     0     -10.862  -8.118  -0.786  0.00  0.00    -0.026 C 
HETATM    6  C   UNK     0     -13.474  -8.939  -0.893  0.00  0.00    -0.006 C 
HETATM    7  C   UNK     0      -9.865  -7.123  -1.631  0.00  0.00    -0.013 C 
HETATM    8  C   UNK     0     -10.492  -9.606  -1.011  0.00  0.00     0.011 C 
HETATM    9  C   UNK     0     -10.707  -7.846   0.745  0.00  0.00     0.016 C 
HETATM   10  C   UNK     0     -10.337  -5.660  -1.496  0.00  0.00    -0.067 C 
HETATM   11  C   UNK     0      -8.389  -7.299  -1.151  0.00  0.00     0.015 C 
HETATM   12  C   UNK     0      -9.883  -7.456  -3.154  0.00  0.00     0.021 C 
HETATM   13  C   UNK     0      -9.355  -4.498  -1.739  0.00  0.00     0.027 C 
HETATM   14  C   UNK     0     -11.607  -5.368  -1.151  0.00  0.00     0.009 C 
HETATM   15  C   UNK     0      -7.983  -4.770  -1.053  0.00  0.00    -0.036 C 
HETATM   16  C   UNK     0      -9.233  -4.090  -3.253  0.00  0.00    -0.006 C 
HETATM   17  C   UNK     0      -7.445  -6.146  -1.509  0.00  0.00     0.011 C 
HETATM   18  C   UNK     0      -6.959  -3.659  -1.387  0.00  0.00     0.010 C 
HETATM   19  C   UNK     0      -8.137  -4.746   0.491  0.00  0.00     0.016 C 
HETATM   20  C   UNK     0      -6.852  -3.329  -2.866  0.00  0.00     0.005 C 
HETATM   21  C   UNK     0      -8.214  -2.934  -3.444  0.00  0.00    -0.014 C 
HETATM   22  C   UNK     0      -8.027  -2.529  -4.911  0.00  0.00     0.010 C 
HETATM   23  C   UNK     0     -10.602  -3.721  -3.849  0.00  0.00     0.011 C 
HETATM   24  C   UNK     0     -11.533 -10.592  -0.493  0.00  0.00     0.007 C 
HETATM   25  C   UNK     0     -12.885 -10.367  -1.194  0.00  0.00     0.007 C 
HETATM   26  C   UNK     0     -13.891 -11.578  -1.029  0.00  0.00    -0.017 C 
HETATM   27  C   UNK     0     -15.336 -11.188  -1.474  0.00  0.00     0.128 C 
HETATM   28  C   UNK     0     -13.419 -12.711  -1.990  0.00  0.00     0.018 C 
HETATM   29  C   UNK     0     -13.893 -12.191   0.388  0.00  0.00     0.018 C 
HETATM   30  C   UNK     0     -15.334 -10.009  -2.443  0.00  0.00     0.065 C 
HETATM   31  C   UNK     0     -14.715  -8.727  -1.858  0.00  0.00     0.129 C 
HETATM   32  C   UNK     0     -13.936  -8.815   0.580  0.00  0.00     0.019 C 
BRANCH  27  33
HETATM   33  O   UNK     0     -16.181 -10.889  -0.367  0.00  0.00    -0.395 OA
HETATM   34  H   UNK     0     -17.102 -10.970  -0.667  0.00  0.00     0.210 HD
ENDBRANCH  27  33
BRANCH  31  35
HETATM   35  O   UNK     0     -15.740  -7.970  -1.211  0.00  0.00    -0.395 OA
HETATM   36  H   UNK     0     -16.585  -8.426  -1.359  0.00  0.00     0.210 HD
ENDBRANCH  31  35
ENDBRANCH   1   3
TORSDOF 3
