REMARK VINA RESULT:      -6.4      0.000      0.000
REMARK  3 active torsions:
REMARK  status: ('A' for Active; 'I' for Inactive)
REMARK    1  A    between atoms: O_1  and  C_14 
REMARK    2  A    between atoms: O_2  and  C_17 
REMARK    3  A    between atoms: O_3  and  C_21 
ROOT
HETATM    1  O   UNK     0       3.155  -1.193  -9.584  0.00  0.00    -0.386 OA
HETATM    2  C   UNK     0       4.069  -0.162  -9.245  0.00  0.00     0.202 C 
ENDROOT
BRANCH   1   3
HETATM    3  C   UNK     0       2.636  -1.017 -10.899  0.00  0.00     0.149 C 
HETATM    4  C   UNK     0       1.594  -2.122 -11.242  0.00  0.00     0.038 C 
HETATM    5  C   UNK     0       0.709  -1.634 -12.459  0.00  0.00    -0.026 C 
HETATM    6  C   UNK     0       2.167  -3.635 -11.287  0.00  0.00    -0.006 C 
HETATM    7  C   UNK     0      -0.096  -0.281 -11.990  0.00  0.00    -0.013 C 
HETATM    8  C   UNK     0      -0.276  -2.748 -12.899  0.00  0.00     0.011 C 
HETATM    9  C   UNK     0       1.602  -1.314 -13.700  0.00  0.00     0.016 C 
HETATM   10  C   UNK     0       0.898   0.761 -11.433  0.00  0.00    -0.067 C 
HETATM   11  C   UNK     0      -0.929   0.296 -13.178  0.00  0.00     0.015 C 
HETATM   12  C   UNK     0      -1.107  -0.586 -10.842  0.00  0.00     0.021 C 
HETATM   13  C   UNK     0       0.522   2.254 -11.395  0.00  0.00     0.027 C 
HETATM   14  C   UNK     0       2.114   0.391 -10.983  0.00  0.00     0.009 C 
HETATM   15  C   UNK     0      -0.154   2.697 -12.726  0.00  0.00    -0.036 C 
HETATM   16  C   UNK     0      -0.287   2.662 -10.110  0.00  0.00    -0.006 C 
HETATM   17  C   UNK     0      -1.348   1.762 -13.031  0.00  0.00     0.011 C 
HETATM   18  C   UNK     0      -0.633   4.167 -12.651  0.00  0.00     0.010 C 
HETATM   19  C   UNK     0       0.867   2.649 -13.894  0.00  0.00     0.016 C 
HETATM   20  C   UNK     0      -1.443   4.499 -11.409  0.00  0.00     0.005 C 
HETATM   21  C   UNK     0      -0.660   4.169 -10.135  0.00  0.00    -0.014 C 
HETATM   22  C   UNK     0      -1.491   4.606  -8.922  0.00  0.00     0.010 C 
HETATM   23  C   UNK     0       0.479   2.306  -8.824  0.00  0.00     0.011 C 
HETATM   24  C   UNK     0       0.372  -4.116 -13.078  0.00  0.00     0.007 C 
HETATM   25  C   UNK     0       1.007  -4.589 -11.757  0.00  0.00     0.007 C 
HETATM   26  C   UNK     0       1.334  -6.138 -11.734  0.00  0.00    -0.017 C 
HETATM   27  C   UNK     0       2.251  -6.513 -10.528  0.00  0.00     0.128 C 
HETATM   28  C   UNK     0      -0.011  -6.896 -11.525  0.00  0.00     0.018 C 
HETATM   29  C   UNK     0       1.921  -6.666 -13.062  0.00  0.00     0.018 C 
HETATM   30  C   UNK     0       2.150  -5.491  -9.399  0.00  0.00     0.065 C 
HETATM   31  C   UNK     0       2.564  -4.067  -9.814  0.00  0.00     0.129 C 
HETATM   32  C   UNK     0       3.404  -3.748 -12.212  0.00  0.00     0.019 C 
BRANCH  27  33
HETATM   33  O   UNK     0       3.614  -6.664 -10.910  0.00  0.00    -0.395 OA
HETATM   34  H   UNK     0       4.006  -7.353 -10.347  0.00  0.00     0.210 HD
ENDBRANCH  27  33
BRANCH  31  35
HETATM   35  O   UNK     0       3.968  -3.910  -9.598  0.00  0.00    -0.395 OA
HETATM   36  H   UNK     0       4.335  -3.434 -10.362  0.00  0.00     0.210 HD
ENDBRANCH  31  35
ENDBRANCH   1   3
TORSDOF 3
