REMARK  3 active torsions:
REMARK  status: ('A' for Active; 'I' for Inactive)
REMARK    1  A    between atoms: O_1  and  C_14 
REMARK    2  A    between atoms: O_2  and  C_17 
REMARK    3  A    between atoms: O_3  and  C_21 
ROOT
HETATM    1  O   UNK     0       0.619   2.659  -0.470  0.00  0.00    -0.386 OA
HETATM    2  C   UNK     0       0.460   3.633  -1.490  0.00  0.00     0.202 C 
ENDROOT
BRANCH   1   3
HETATM    3  C   UNK     0       0.293   1.355  -0.941  0.00  0.00     0.149 C 
HETATM    4  C   UNK     0       1.046   0.261  -0.127  0.00  0.00     0.038 C 
HETATM    5  C   UNK     0       0.315  -1.127  -0.332  0.00  0.00    -0.026 C 
HETATM    6  C   UNK     0       2.660   0.287  -0.244  0.00  0.00    -0.006 C 
HETATM    7  C   UNK     0      -1.211  -0.989   0.260  0.00  0.00    -0.013 C 
HETATM    8  C   UNK     0       1.092  -2.263   0.381  0.00  0.00     0.011 C 
HETATM    9  C   UNK     0       0.262  -1.506  -1.847  0.00  0.00     0.016 C 
HETATM   10  C   UNK     0      -1.916   0.231  -0.371  0.00  0.00    -0.067 C 
HETATM   11  C   UNK     0      -2.011  -2.307   0.013  0.00  0.00     0.015 C 
HETATM   12  C   UNK     0      -1.207  -0.750   1.801  0.00  0.00     0.021 C 
HETATM   13  C   UNK     0      -3.454   0.314  -0.401  0.00  0.00     0.027 C 
HETATM   14  C   UNK     0      -1.206   1.238  -0.918  0.00  0.00     0.009 C 
HETATM   15  C   UNK     0      -4.081  -1.048  -0.824  0.00  0.00    -0.036 C 
HETATM   16  C   UNK     0      -4.073   0.912   0.915  0.00  0.00    -0.006 C 
HETATM   17  C   UNK     0      -3.535  -2.170   0.090  0.00  0.00     0.011 C 
HETATM   18  C   UNK     0      -5.626  -1.002  -0.748  0.00  0.00     0.010 C 
HETATM   19  C   UNK     0      -3.744  -1.361  -2.306  0.00  0.00     0.016 C 
HETATM   20  C   UNK     0      -6.173  -0.452   0.558  0.00  0.00     0.005 C 
HETATM   21  C   UNK     0      -5.623   0.949   0.841  0.00  0.00    -0.014 C 
HETATM   22  C   UNK     0      -6.277   1.484   2.121  0.00  0.00     0.010 C 
HETATM   23  C   UNK     0      -3.503   2.307   1.223  0.00  0.00     0.011 C 
HETATM   24  C   UNK     0       2.589  -2.271   0.091  0.00  0.00     0.007 C 
HETATM   25  C   UNK     0       3.233  -0.948   0.545  0.00  0.00     0.007 C 
HETATM   26  C   UNK     0       4.810  -1.022   0.662  0.00  0.00    -0.017 C 
HETATM   27  C   UNK     0       5.441   0.398   0.812  0.00  0.00     0.128 C 
HETATM   28  C   UNK     0       5.145  -1.800   1.970  0.00  0.00     0.018 C 
HETATM   29  C   UNK     0       5.479  -1.808  -0.487  0.00  0.00     0.018 C 
HETATM   30  C   UNK     0       4.440   1.410   1.362  0.00  0.00     0.065 C 
HETATM   31  C   UNK     0       3.196   1.595   0.474  0.00  0.00     0.129 C 
HETATM   32  C   UNK     0       3.123   0.280  -1.722  0.00  0.00     0.019 C 
BRANCH  27  33
HETATM   33  O   UNK     0       5.980   0.883  -0.413  0.00  0.00    -0.395 OA
HETATM   34  H   UNK     0       6.366   1.759  -0.242  0.00  0.00     0.210 HD
ENDBRANCH  27  33
BRANCH  31  35
HETATM   35  O   UNK     0       3.455   2.629  -0.478  0.00  0.00    -0.395 OA
HETATM   36  H   UNK     0       3.667   3.440   0.014  0.00  0.00     0.210 HD
ENDBRANCH  31  35
ENDBRANCH   1   3
TORSDOF 3
