REMARK VINA RESULT:      -7.2      0.000      0.000
REMARK  3 active torsions:
REMARK  status: ('A' for Active; 'I' for Inactive)
REMARK    1  A    between atoms: O_2  and  C_14 
REMARK    2  A    between atoms: O_3  and  C_29 
REMARK    3  A    between atoms: O_3  and  C_35 
ROOT
HETATM    1  O   UNK     0       1.730  -2.478 -13.840  0.00  0.00    -0.378 OA
HETATM    2  C   UNK     0      -0.439  -2.690 -14.969  0.00  0.00    -0.002 C 
HETATM    3  C   UNK     0       0.308  -2.171 -13.678  0.00  0.00     0.073 C 
HETATM    4  C   UNK     0      -0.360  -4.332 -15.038  0.00  0.00    -0.029 C 
HETATM    5  C   UNK     0       0.394  -0.647 -13.495  0.00  0.00     0.035 C 
HETATM    6  C   UNK     0       1.305  -0.281 -14.659  0.00  0.00     0.014 C 
HETATM    7  C   UNK     0      -1.050  -4.888 -13.732  0.00  0.00     0.003 C 
HETATM    8  C   UNK     0      -1.394  -6.444 -13.719  0.00  0.00    -0.035 C 
HETATM    9  C   UNK     0       0.203  -2.041 -16.237  0.00  0.00     0.045 C 
HETATM   10  C   UNK     0      -0.197  -2.851 -12.394  0.00  0.00     0.040 C 
HETATM   11  C   UNK     0       0.674  -0.582 -16.056  0.00  0.00     0.130 C 
HETATM   12  C   UNK     0      -0.318  -4.376 -12.465  0.00  0.00     0.009 C 
HETATM   13  C   UNK     0      -2.213  -6.747 -15.033  0.00  0.00     0.004 C 
HETATM   14  C   UNK     0      -1.072  -4.874 -16.316  0.00  0.00     0.011 C 
HETATM   15  C   UNK     0       2.405  -1.320 -14.395  0.00  0.00     0.181 C 
HETATM   16  C   UNK     0      -0.799   0.281 -13.309  0.00  0.00     0.017 C 
HETATM   17  C   UNK     0       1.784   1.172 -14.517  0.00  0.00     0.015 C 
HETATM   18  C   UNK     0      -1.407  -6.369 -16.291  0.00  0.00     0.007 C 
HETATM   19  C   UNK     0      -1.935  -2.227 -14.922  0.00  0.00     0.019 C 
HETATM   20  C   UNK     0       1.110  -4.855 -15.147  0.00  0.00     0.016 C 
HETATM   21  C   UNK     0      -0.340   1.757 -13.124  0.00  0.00    -0.047 C 
HETATM   22  C   UNK     0      -2.913  -8.156 -15.104  0.00  0.00    -0.017 C 
HETATM   23  C   UNK     0      -2.321  -6.739 -12.499  0.00  0.00     0.012 C 
HETATM   24  C   UNK     0       0.652   2.179 -14.241  0.00  0.00     0.010 C 
HETATM   25  C   UNK     0      -0.127  -7.316 -13.558  0.00  0.00     0.016 C 
HETATM   26  C   UNK     0      -3.763  -8.353 -13.816  0.00  0.00     0.140 C 
HETATM   27  C   UNK     0      -2.986  -8.113 -12.528  0.00  0.00     0.034 C 
HETATM   28  C   UNK     0       0.360   1.888 -11.758  0.00  0.00     0.015 C 
HETATM   29  C   UNK     0      -1.553   2.713 -13.116  0.00  0.00     0.015 C 
HETATM   30  C   UNK     0      -1.829  -9.273 -15.122  0.00  0.00     0.018 C 
HETATM   31  C   UNK     0      -3.757  -8.372 -16.377  0.00  0.00     0.018 C 
ENDROOT
BRANCH  11  32
HETATM   32  O   UNK     0      -0.412   0.277 -16.375  0.00  0.00    -0.395 OA
HETATM   33  H   UNK     0      -0.643   0.133 -17.309  0.00  0.00     0.210 HD
ENDBRANCH  11  32
BRANCH  26  34
HETATM   34  O   UNK     0      -4.307  -9.671 -13.735  0.00  0.00    -0.316 OA
BRANCH  34  35
HETATM   35  C   UNK     0      -5.518  -9.770 -13.114  0.00  0.00     0.255 C 
HETATM   36  O   UNK     0      -5.837 -10.604 -12.277  0.00  0.00    -0.266 OA
HETATM   37  C   UNK     0      -6.429  -8.688 -13.609  0.00  0.00     0.126 C 
ENDBRANCH  34  35
ENDBRANCH  26  34
TORSDOF 3
