REMARK  3 active torsions:
REMARK  status: ('A' for Active; 'I' for Inactive)
REMARK    1  A    between atoms: O_2  and  C_14 
REMARK    2  A    between atoms: O_3  and  C_29 
REMARK    3  A    between atoms: O_3  and  C_35 
ROOT
HETATM    1  O   UNK     0       2.627   1.108  -1.693  0.00  0.00    -0.378 OA
HETATM    2  C   UNK     0       1.553   0.622   0.460  0.00  0.00    -0.002 C 
HETATM    3  C   UNK     0       2.313   0.007  -0.780  0.00  0.00     0.073 C 
HETATM    4  C   UNK     0       0.094   1.214  -0.016  0.00  0.00    -0.029 C 
HETATM    5  C   UNK     0       3.732  -0.528  -0.526  0.00  0.00     0.035 C 
HETATM    6  C   UNK     0       4.463   0.770  -0.212  0.00  0.00     0.014 C 
HETATM    7  C   UNK     0      -0.721   0.009  -0.629  0.00  0.00     0.003 C 
HETATM    8  C   UNK     0      -2.280   0.251  -0.858  0.00  0.00    -0.035 C 
HETATM    9  C   UNK     0       2.432   1.742   1.105  0.00  0.00     0.045 C 
HETATM   10  C   UNK     0       1.462  -1.028  -1.535  0.00  0.00     0.040 C 
HETATM   11  C   UNK     0       3.951   1.469   1.088  0.00  0.00     0.130 C 
HETATM   12  C   UNK     0       0.026  -0.596  -1.844  0.00  0.00     0.009 C 
HETATM   13  C   UNK     0      -2.872   0.773   0.507  0.00  0.00     0.004 C 
HETATM   14  C   UNK     0      -0.673   1.849   1.186  0.00  0.00     0.011 C 
HETATM   15  C   UNK     0       3.970   1.582  -1.419  0.00  0.00     0.181 C 
HETATM   16  C   UNK     0       4.077  -1.688   0.398  0.00  0.00     0.017 C 
HETATM   17  C   UNK     0       5.981   0.533  -0.208  0.00  0.00     0.015 C 
HETATM   18  C   UNK     0      -2.172   2.069   0.959  0.00  0.00     0.007 C 
HETATM   19  C   UNK     0       1.352  -0.488   1.547  0.00  0.00     0.019 C 
HETATM   20  C   UNK     0       0.230   2.371  -1.059  0.00  0.00     0.016 C 
HETATM   21  C   UNK     0       5.607  -1.976   0.392  0.00  0.00    -0.047 C 
HETATM   22  C   UNK     0      -4.443   0.808   0.613  0.00  0.00    -0.017 C 
HETATM   23  C   UNK     0      -2.954  -1.119  -1.180  0.00  0.00     0.012 C 
HETATM   24  C   UNK     0       6.422  -0.677   0.635  0.00  0.00     0.010 C 
HETATM   25  C   UNK     0      -2.550   1.192  -2.056  0.00  0.00     0.016 C 
HETATM   26  C   UNK     0      -4.998  -0.592   0.221  0.00  0.00     0.140 C 
HETATM   27  C   UNK     0      -4.479  -1.103  -1.117  0.00  0.00     0.034 C 
HETATM   28  C   UNK     0       5.993  -2.558  -0.982  0.00  0.00     0.015 C 
HETATM   29  C   UNK     0       5.973  -3.029   1.460  0.00  0.00     0.015 C 
HETATM   30  C   UNK     0      -5.009   1.835  -0.410  0.00  0.00     0.018 C 
HETATM   31  C   UNK     0      -4.968   1.258   1.992  0.00  0.00     0.018 C 
ENDROOT
BRANCH  11  32
HETATM   32  O   UNK     0       4.287   0.760   2.273  0.00  0.00    -0.395 OA
HETATM   33  H   UNK     0       4.032   1.310   3.033  0.00  0.00     0.210 HD
ENDBRANCH  11  32
BRANCH  26  34
HETATM   34  O   UNK     0      -6.424  -0.596   0.145  0.00  0.00    -0.316 OA
BRANCH  34  35
HETATM   35  C   UNK     0      -7.026  -1.783   0.447  0.00  0.00     0.255 C 
HETATM   36  O   UNK     0      -6.462  -2.820   0.771  0.00  0.00    -0.266 OA
HETATM   37  C   UNK     0      -8.513  -1.639   0.326  0.00  0.00     0.126 C 
ENDBRANCH  34  35
ENDBRANCH  26  34
TORSDOF 3
