MODEL 1
REMARK VINA RESULT:      -7.2      0.000      0.000
REMARK  3 active torsions:
REMARK  status: ('A' for Active; 'I' for Inactive)
REMARK    1  A    between atoms: O_2  and  C_14 
REMARK    2  A    between atoms: O_3  and  C_29 
REMARK    3  A    between atoms: O_3  and  C_35 
ROOT
HETATM    1  O   UNK     0       1.730  -2.478 -13.840  0.00  0.00    -0.378 OA
HETATM    2  C   UNK     0      -0.439  -2.690 -14.969  0.00  0.00    -0.002 C 
HETATM    3  C   UNK     0       0.308  -2.171 -13.678  0.00  0.00     0.073 C 
HETATM    4  C   UNK     0      -0.360  -4.332 -15.038  0.00  0.00    -0.029 C 
HETATM    5  C   UNK     0       0.394  -0.647 -13.495  0.00  0.00     0.035 C 
HETATM    6  C   UNK     0       1.305  -0.281 -14.659  0.00  0.00     0.014 C 
HETATM    7  C   UNK     0      -1.050  -4.888 -13.732  0.00  0.00     0.003 C 
HETATM    8  C   UNK     0      -1.394  -6.444 -13.719  0.00  0.00    -0.035 C 
HETATM    9  C   UNK     0       0.203  -2.041 -16.237  0.00  0.00     0.045 C 
HETATM   10  C   UNK     0      -0.197  -2.851 -12.394  0.00  0.00     0.040 C 
HETATM   11  C   UNK     0       0.674  -0.582 -16.056  0.00  0.00     0.130 C 
HETATM   12  C   UNK     0      -0.318  -4.376 -12.465  0.00  0.00     0.009 C 
HETATM   13  C   UNK     0      -2.213  -6.747 -15.033  0.00  0.00     0.004 C 
HETATM   14  C   UNK     0      -1.072  -4.874 -16.316  0.00  0.00     0.011 C 
HETATM   15  C   UNK     0       2.405  -1.320 -14.395  0.00  0.00     0.181 C 
HETATM   16  C   UNK     0      -0.799   0.281 -13.309  0.00  0.00     0.017 C 
HETATM   17  C   UNK     0       1.784   1.172 -14.517  0.00  0.00     0.015 C 
HETATM   18  C   UNK     0      -1.407  -6.369 -16.291  0.00  0.00     0.007 C 
HETATM   19  C   UNK     0      -1.935  -2.227 -14.922  0.00  0.00     0.019 C 
HETATM   20  C   UNK     0       1.110  -4.855 -15.147  0.00  0.00     0.016 C 
HETATM   21  C   UNK     0      -0.340   1.757 -13.124  0.00  0.00    -0.047 C 
HETATM   22  C   UNK     0      -2.913  -8.156 -15.104  0.00  0.00    -0.017 C 
HETATM   23  C   UNK     0      -2.321  -6.739 -12.499  0.00  0.00     0.012 C 
HETATM   24  C   UNK     0       0.652   2.179 -14.241  0.00  0.00     0.010 C 
HETATM   25  C   UNK     0      -0.127  -7.316 -13.558  0.00  0.00     0.016 C 
HETATM   26  C   UNK     0      -3.763  -8.353 -13.816  0.00  0.00     0.140 C 
HETATM   27  C   UNK     0      -2.986  -8.113 -12.528  0.00  0.00     0.034 C 
HETATM   28  C   UNK     0       0.360   1.888 -11.758  0.00  0.00     0.015 C 
HETATM   29  C   UNK     0      -1.553   2.713 -13.116  0.00  0.00     0.015 C 
HETATM   30  C   UNK     0      -1.829  -9.273 -15.122  0.00  0.00     0.018 C 
HETATM   31  C   UNK     0      -3.757  -8.372 -16.377  0.00  0.00     0.018 C 
ENDROOT
BRANCH  11  32
HETATM   32  O   UNK     0      -0.412   0.277 -16.375  0.00  0.00    -0.395 OA
HETATM   33  H   UNK     0      -0.643   0.133 -17.309  0.00  0.00     0.210 HD
ENDBRANCH  11  32
BRANCH  26  34
HETATM   34  O   UNK     0      -4.307  -9.671 -13.735  0.00  0.00    -0.316 OA
BRANCH  34  35
HETATM   35  C   UNK     0      -5.518  -9.770 -13.114  0.00  0.00     0.255 C 
HETATM   36  O   UNK     0      -5.837 -10.604 -12.277  0.00  0.00    -0.266 OA
HETATM   37  C   UNK     0      -6.429  -8.688 -13.609  0.00  0.00     0.126 C 
ENDBRANCH  34  35
ENDBRANCH  26  34
TORSDOF 3
ENDMDL
MODEL 2
REMARK VINA RESULT:      -6.7      2.958      4.067
REMARK  3 active torsions:
REMARK  status: ('A' for Active; 'I' for Inactive)
REMARK    1  A    between atoms: O_2  and  C_14 
REMARK    2  A    between atoms: O_3  and  C_29 
REMARK    3  A    between atoms: O_3  and  C_35 
ROOT
HETATM    1  O   UNK     0       1.282  -1.399 -15.399  0.00  0.00    -0.378 OA
HETATM    2  C   UNK     0      -0.563  -2.117 -13.948  0.00  0.00    -0.002 C 
HETATM    3  C   UNK     0       0.672  -1.143 -14.093  0.00  0.00     0.073 C 
HETATM    4  C   UNK     0      -0.041  -3.675 -13.880  0.00  0.00    -0.029 C 
HETATM    5  C   UNK     0       0.357   0.354 -14.246  0.00  0.00     0.035 C 
HETATM    6  C   UNK     0      -0.316   0.356 -15.611  0.00  0.00     0.014 C 
HETATM    7  C   UNK     0       0.914  -3.793 -12.628  0.00  0.00     0.003 C 
HETATM    8  C   UNK     0       1.284  -5.269 -12.155  0.00  0.00    -0.035 C 
HETATM    9  C   UNK     0      -1.538  -1.902 -15.150  0.00  0.00     0.045 C 
HETATM   10  C   UNK     0       1.732  -1.374 -13.003  0.00  0.00     0.040 C 
HETATM   11  C   UNK     0      -1.658  -0.443 -15.639  0.00  0.00     0.130 C 
HETATM   12  C   UNK     0       2.123  -2.835 -12.769  0.00  0.00     0.009 C 
HETATM   13  C   UNK     0      -0.073  -6.052 -11.979  0.00  0.00     0.004 C 
HETATM   14  C   UNK     0      -1.242  -4.665 -13.758  0.00  0.00     0.011 C 
HETATM   15  C   UNK     0       0.744  -0.461 -16.365  0.00  0.00     0.181 C 
HETATM   16  C   UNK     0      -0.336   1.214 -13.198  0.00  0.00     0.017 C 
HETATM   17  C   UNK     0      -0.464   1.796 -16.125  0.00  0.00     0.015 C 
HETATM   18  C   UNK     0      -0.876  -6.078 -13.294  0.00  0.00     0.007 C 
HETATM   19  C   UNK     0      -1.354  -1.759 -12.644  0.00  0.00     0.019 C 
HETATM   20  C   UNK     0       0.707  -4.113 -15.182  0.00  0.00     0.016 C 
HETATM   21  C   UNK     0      -0.465   2.690 -13.676  0.00  0.00    -0.047 C 
HETATM   22  C   UNK     0       0.018  -7.441 -11.242  0.00  0.00    -0.017 C 
HETATM   23  C   UNK     0       1.973  -5.186 -10.757  0.00  0.00     0.012 C 
HETATM   24  C   UNK     0      -1.080   2.765 -15.100  0.00  0.00     0.010 C 
HETATM   25  C   UNK     0       2.279  -5.955 -13.121  0.00  0.00     0.016 C 
HETATM   26  C   UNK     0       0.766  -7.239  -9.893  0.00  0.00     0.140 C 
HETATM   27  C   UNK     0       2.104  -6.525 -10.036  0.00  0.00     0.034 C 
HETATM   28  C   UNK     0       0.940   3.323 -13.706  0.00  0.00     0.015 C 
HETATM   29  C   UNK     0      -1.323   3.515 -12.693  0.00  0.00     0.015 C 
HETATM   30  C   UNK     0       0.863  -8.428 -12.098  0.00  0.00     0.018 C 
HETATM   31  C   UNK     0      -1.346  -8.131 -11.034  0.00  0.00     0.018 C 
ENDROOT
BRANCH  11  32
HETATM   32  O   UNK     0      -2.699   0.186 -14.904  0.00  0.00    -0.395 OA
HETATM   33  H   UNK     0      -2.536   0.026 -13.959  0.00  0.00     0.210 HD
ENDBRANCH  11  32
BRANCH  26  34
HETATM   34  O   UNK     0       1.023  -8.481  -9.236  0.00  0.00    -0.316 OA
BRANCH  34  35
HETATM   35  C   UNK     0       0.994  -8.442  -7.872  0.00  0.00     0.255 C 
HETATM   36  O   UNK     0       1.907  -8.752  -7.118  0.00  0.00    -0.266 OA
HETATM   37  C   UNK     0      -0.346  -7.954  -7.411  0.00  0.00     0.126 C 
ENDBRANCH  34  35
ENDBRANCH  26  34
TORSDOF 3
ENDMDL
MODEL 3
REMARK VINA RESULT:      -6.6      2.602      9.088
REMARK  3 active torsions:
REMARK  status: ('A' for Active; 'I' for Inactive)
REMARK    1  A    between atoms: O_2  and  C_14 
REMARK    2  A    between atoms: O_3  and  C_29 
REMARK    3  A    between atoms: O_3  and  C_35 
ROOT
HETATM    1  O   UNK     0      -0.198  -3.911 -15.690  0.00  0.00    -0.378 OA
HETATM    2  C   UNK     0       0.820  -3.254 -13.555  0.00  0.00    -0.002 C 
HETATM    3  C   UNK     0      -0.479  -3.815 -14.256  0.00  0.00     0.073 C 
HETATM    4  C   UNK     0       1.094  -1.708 -14.043  0.00  0.00    -0.029 C 
HETATM    5  C   UNK     0      -0.843  -5.281 -13.968  0.00  0.00     0.035 C 
HETATM    6  C   UNK     0       0.318  -5.992 -14.650  0.00  0.00     0.014 C 
HETATM    7  C   UNK     0      -0.172  -0.858 -13.634  0.00  0.00     0.003 C 
HETATM    8  C   UNK     0      -0.013   0.727 -13.699  0.00  0.00    -0.035 C 
HETATM    9  C   UNK     0       2.034  -4.177 -13.898  0.00  0.00     0.045 C 
HETATM   10  C   UNK     0      -1.697  -2.897 -14.055  0.00  0.00     0.040 C 
HETATM   11  C   UNK     0       1.703  -5.681 -13.996  0.00  0.00     0.130 C 
HETATM   12  C   UNK     0      -1.447  -1.410 -14.320  0.00  0.00     0.009 C 
HETATM   13  C   UNK     0       1.278   1.096 -12.873  0.00  0.00     0.004 C 
HETATM   14  C   UNK     0       2.386  -1.132 -13.383  0.00  0.00     0.011 C 
HETATM   15  C   UNK     0       0.248  -5.257 -15.996  0.00  0.00     0.181 C 
HETATM   16  C   UNK     0      -1.209  -5.839 -12.599  0.00  0.00     0.017 C 
HETATM   17  C   UNK     0       0.028  -7.497 -14.754  0.00  0.00     0.015 C 
HETATM   18  C   UNK     0       2.525   0.392 -13.443  0.00  0.00     0.007 C 
HETATM   19  C   UNK     0       0.631  -3.301 -12.001  0.00  0.00     0.019 C 
HETATM   20  C   UNK     0       1.352  -1.603 -15.582  0.00  0.00     0.016 C 
HETATM   21  C   UNK     0      -1.547  -7.356 -12.681  0.00  0.00    -0.047 C 
HETATM   22  C   UNK     0       1.481   2.625 -12.551  0.00  0.00    -0.017 C 
HETATM   23  C   UNK     0      -1.239   1.379 -12.988  0.00  0.00     0.012 C 
HETATM   24  C   UNK     0      -0.434  -8.137 -13.433  0.00  0.00     0.010 C 
HETATM   25  C   UNK     0       0.008   1.248 -15.156  0.00  0.00     0.016 C 
HETATM   26  C   UNK     0       0.180   3.171 -11.895  0.00  0.00     0.140 C 
HETATM   27  C   UNK     0      -1.081   2.869 -12.695  0.00  0.00     0.034 C 
HETATM   28  C   UNK     0      -2.876  -7.524 -13.443  0.00  0.00     0.015 C 
HETATM   29  C   UNK     0      -1.742  -7.954 -11.271  0.00  0.00     0.015 C 
HETATM   30  C   UNK     0       1.698   3.410 -13.877  0.00  0.00     0.018 C 
HETATM   31  C   UNK     0       2.720   2.922 -11.681  0.00  0.00     0.018 C 
ENDROOT
BRANCH  11  32
HETATM   32  O   UNK     0       1.852  -6.253 -12.704  0.00  0.00    -0.395 OA
HETATM   33  H   UNK     0       1.851  -5.529 -12.055  0.00  0.00     0.210 HD
ENDBRANCH  11  32
BRANCH  26  34
HETATM   34  O   UNK     0       0.230   4.586 -11.713  0.00  0.00    -0.316 OA
BRANCH  34  35
HETATM   35  C   UNK     0      -0.348   5.053 -10.568  0.00  0.00     0.255 C 
HETATM   36  O   UNK     0      -0.921   6.125 -10.431  0.00  0.00    -0.266 OA
HETATM   37  C   UNK     0      -0.181   4.044  -9.472  0.00  0.00     0.126 C 
ENDBRANCH  34  35
ENDBRANCH  26  34
TORSDOF 3
ENDMDL
MODEL 4
REMARK VINA RESULT:      -6.6      2.453      3.853
REMARK  3 active torsions:
REMARK  status: ('A' for Active; 'I' for Inactive)
REMARK    1  A    between atoms: O_2  and  C_14 
REMARK    2  A    between atoms: O_3  and  C_29 
REMARK    3  A    between atoms: O_3  and  C_35 
ROOT
HETATM    1  O   UNK     0       1.875   0.227 -13.662  0.00  0.00    -0.378 OA
HETATM    2  C   UNK     0      -0.203  -0.699 -12.741  0.00  0.00    -0.002 C 
HETATM    3  C   UNK     0       1.168   0.005 -12.399  0.00  0.00     0.073 C 
HETATM    4  C   UNK     0       0.077  -2.203 -13.346  0.00  0.00    -0.029 C 
HETATM    5  C   UNK     0       1.093   1.454 -11.889  0.00  0.00     0.035 C 
HETATM    6  C   UNK     0       0.581   2.159 -13.138  0.00  0.00     0.014 C 
HETATM    7  C   UNK     0       0.861  -3.013 -12.240  0.00  0.00     0.003 C 
HETATM    8  C   UNK     0       0.959  -4.590 -12.451  0.00  0.00    -0.035 C 
HETATM    9  C   UNK     0      -0.999   0.178 -13.760  0.00  0.00     0.045 C 
HETATM   10  C   UNK     0       2.058  -0.854 -11.485  0.00  0.00     0.040 C 
HETATM   11  C   UNK     0      -0.852   1.702 -13.562  0.00  0.00     0.130 C 
HETATM   12  C   UNK     0       2.205  -2.319 -11.903  0.00  0.00     0.009 C 
HETATM   13  C   UNK     0      -0.509  -5.116 -12.686  0.00  0.00     0.004 C 
HETATM   14  C   UNK     0      -1.261  -2.918 -13.714  0.00  0.00     0.011 C 
HETATM   15  C   UNK     0       1.588   1.568 -14.136  0.00  0.00     0.181 C 
HETATM   16  C   UNK     0       0.421   1.892 -10.595  0.00  0.00     0.017 C 
HETATM   17  C   UNK     0       0.701   3.681 -12.971  0.00  0.00     0.015 C 
HETATM   18  C   UNK     0      -1.158  -4.434 -13.906  0.00  0.00     0.007 C 
HETATM   19  C   UNK     0      -1.072  -0.798 -11.442  0.00  0.00     0.019 C 
HETATM   20  C   UNK     0       0.892  -2.168 -14.680  0.00  0.00     0.016 C 
HETATM   21  C   UNK     0       0.561   3.428 -10.381  0.00  0.00    -0.047 C 
HETATM   22  C   UNK     0      -0.702  -6.679 -12.631  0.00  0.00    -0.017 C 
HETATM   23  C   UNK     0       1.495  -5.235 -11.136  0.00  0.00     0.012 C 
HETATM   24  C   UNK     0       0.123   4.212 -11.647  0.00  0.00     0.010 C 
HETATM   25  C   UNK     0       1.944  -4.962 -13.584  0.00  0.00     0.016 C 
HETATM   26  C   UNK     0      -0.085  -7.209 -11.305  0.00  0.00     0.140 C 
HETATM   27  C   UNK     0       1.351  -6.754 -11.073  0.00  0.00     0.034 C 
HETATM   28  C   UNK     0       2.038   3.751 -10.080  0.00  0.00     0.015 C 
HETATM   29  C   UNK     0      -0.271   3.892  -9.166  0.00  0.00     0.015 C 
HETATM   30  C   UNK     0       0.081  -7.339 -13.804  0.00  0.00     0.018 C 
HETATM   31  C   UNK     0      -2.166  -7.135 -12.796  0.00  0.00     0.018 C 
ENDROOT
BRANCH  11  32
HETATM   32  O   UNK     0      -1.864   2.132 -12.662  0.00  0.00    -0.395 OA
HETATM   33  H   UNK     0      -2.065   3.062 -12.860  0.00  0.00     0.210 HD
ENDBRANCH  11  32
BRANCH  26  34
HETATM   34  O   UNK     0      -0.084  -8.636 -11.252  0.00  0.00    -0.316 OA
BRANCH  34  35
HETATM   35  C   UNK     0      -0.214  -9.179 -10.007  0.00  0.00     0.255 C 
HETATM   36  O   UNK     0       0.549  -9.979  -9.481  0.00  0.00    -0.266 OA
HETATM   37  C   UNK     0      -1.453  -8.646  -9.352  0.00  0.00     0.126 C 
ENDBRANCH  34  35
ENDBRANCH  26  34
TORSDOF 3
ENDMDL
MODEL 5
REMARK VINA RESULT:      -6.6      1.073      1.177
REMARK  3 active torsions:
REMARK  status: ('A' for Active; 'I' for Inactive)
REMARK    1  A    between atoms: O_2  and  C_14 
REMARK    2  A    between atoms: O_3  and  C_29 
REMARK    3  A    between atoms: O_3  and  C_35 
ROOT
HETATM    1  O   UNK     0       2.183  -1.751 -13.163  0.00  0.00    -0.378 OA
HETATM    2  C   UNK     0      -0.043  -1.917 -14.185  0.00  0.00    -0.002 C 
HETATM    3  C   UNK     0       0.761  -1.553 -12.875  0.00  0.00     0.073 C 
HETATM    4  C   UNK     0       0.110  -3.523 -14.506  0.00  0.00    -0.029 C 
HETATM    5  C   UNK     0       0.787  -0.070 -12.469  0.00  0.00     0.035 C 
HETATM    6  C   UNK     0       1.601   0.515 -13.614  0.00  0.00     0.014 C 
HETATM    7  C   UNK     0      -0.467  -4.304 -13.261  0.00  0.00     0.003 C 
HETATM    8  C   UNK     0      -0.736  -5.862 -13.464  0.00  0.00    -0.035 C 
HETATM    9  C   UNK     0       0.484  -1.052 -15.375  0.00  0.00     0.045 C 
HETATM   10  C   UNK     0       0.374  -2.443 -11.683  0.00  0.00     0.040 C 
HETATM   11  C   UNK     0       0.896   0.388 -15.003  0.00  0.00     0.130 C 
HETATM   12  C   UNK     0       0.320  -3.945 -11.976  0.00  0.00     0.009 C 
HETATM   13  C   UNK     0      -1.622  -6.013 -14.760  0.00  0.00     0.004 C 
HETATM   14  C   UNK     0      -0.658  -3.910 -15.809  0.00  0.00     0.011 C 
HETATM   15  C   UNK     0       2.764  -0.488 -13.574  0.00  0.00     0.181 C 
HETATM   16  C   UNK     0      -0.434   0.751 -12.077  0.00  0.00     0.017 C 
HETATM   17  C   UNK     0       2.019   1.956 -13.283  0.00  0.00     0.015 C 
HETATM   18  C   UNK     0      -0.919  -5.408 -15.990  0.00  0.00     0.007 C 
HETATM   19  C   UNK     0      -1.553  -1.551 -13.984  0.00  0.00     0.019 C 
HETATM   20  C   UNK     0       1.592  -3.940 -14.777  0.00  0.00     0.016 C 
HETATM   21  C   UNK     0      -0.035   2.207 -11.698  0.00  0.00    -0.047 C 
HETATM   22  C   UNK     0      -2.258  -7.433 -15.003  0.00  0.00    -0.017 C 
HETATM   23  C   UNK     0      -1.566  -6.386 -12.252  0.00  0.00     0.012 C 
HETATM   24  C   UNK     0       0.862   2.845 -12.794  0.00  0.00     0.010 C 
HETATM   25  C   UNK     0       0.580  -6.676 -13.510  0.00  0.00     0.016 C 
HETATM   26  C   UNK     0      -3.012  -7.867 -13.713  0.00  0.00     0.140 C 
HETATM   27  C   UNK     0      -2.165  -7.776 -12.450  0.00  0.00     0.034 C 
HETATM   28  C   UNK     0       0.746   2.174 -10.370  0.00  0.00     0.015 C 
HETATM   29  C   UNK     0      -1.289   3.081 -11.476  0.00  0.00     0.015 C 
HETATM   30  C   UNK     0      -1.126  -8.472 -15.251  0.00  0.00     0.018 C 
HETATM   31  C   UNK     0      -3.172  -7.506 -16.243  0.00  0.00     0.018 C 
ENDROOT
BRANCH  11  32
HETATM   32  O   UNK     0      -0.248   1.222 -15.126  0.00  0.00    -0.395 OA
HETATM   33  H   UNK     0       0.038   2.143 -15.003  0.00  0.00     0.210 HD
ENDBRANCH  11  32
BRANCH  26  34
HETATM   34  O   UNK     0      -3.487  -9.211 -13.801  0.00  0.00    -0.316 OA
BRANCH  34  35
HETATM   35  C   UNK     0      -4.683  -9.454 -13.191  0.00  0.00     0.255 C 
HETATM   36  O   UNK     0      -4.967 -10.434 -12.515  0.00  0.00    -0.266 OA
HETATM   37  C   UNK     0      -5.629  -8.324 -13.468  0.00  0.00     0.126 C 
ENDBRANCH  34  35
ENDBRANCH  26  34
TORSDOF 3
ENDMDL
MODEL 6
REMARK VINA RESULT:      -6.5      4.088      5.448
REMARK  3 active torsions:
REMARK  status: ('A' for Active; 'I' for Inactive)
REMARK    1  A    between atoms: O_2  and  C_14 
REMARK    2  A    between atoms: O_3  and  C_29 
REMARK    3  A    between atoms: O_3  and  C_35 
ROOT
HETATM    1  O   UNK     0       2.510   0.799 -11.938  0.00  0.00    -0.378 OA
HETATM    2  C   UNK     0       0.525  -0.637 -11.778  0.00  0.00    -0.002 C 
HETATM    3  C   UNK     0       1.361   0.507 -11.079  0.00  0.00     0.073 C 
HETATM    4  C   UNK     0       1.402  -2.028 -11.811  0.00  0.00    -0.029 C 
HETATM    5  C   UNK     0       0.716   1.902 -11.028  0.00  0.00     0.035 C 
HETATM    6  C   UNK     0       0.713   2.257 -12.509  0.00  0.00     0.014 C 
HETATM    7  C   UNK     0       1.728  -2.410 -10.315  0.00  0.00     0.003 C 
HETATM    8  C   UNK     0       2.279  -3.885 -10.063  0.00  0.00    -0.035 C 
HETATM    9  C   UNK     0       0.131  -0.184 -13.221  0.00  0.00     0.045 C 
HETATM   10  C   UNK     0       1.879   0.090  -9.692  0.00  0.00     0.040 C 
HETATM   11  C   UNK     0      -0.193   1.318 -13.367  0.00  0.00     0.130 C 
HETATM   12  C   UNK     0       2.545  -1.287  -9.628  0.00  0.00     0.009 C 
HETATM   13  C   UNK     0       1.270  -4.880 -10.754  0.00  0.00     0.004 C 
HETATM   14  C   UNK     0       0.609  -3.173 -12.517  0.00  0.00     0.011 C 
HETATM   15  C   UNK     0       2.180   1.913 -12.807  0.00  0.00     0.181 C 
HETATM   16  C   UNK     0      -0.572   2.244 -10.292  0.00  0.00     0.017 C 
HETATM   17  C   UNK     0       0.380   3.745 -12.694  0.00  0.00     0.015 C 
HETATM   18  C   UNK     0       1.142  -4.587 -12.261  0.00  0.00     0.007 C 
HETATM   19  C   UNK     0      -0.808  -0.862 -10.987  0.00  0.00     0.019 C 
HETATM   20  C   UNK     0       2.719  -1.885 -12.640  0.00  0.00     0.016 C 
HETATM   21  C   UNK     0      -0.914   3.757 -10.431  0.00  0.00    -0.047 C 
HETATM   22  C   UNK     0       1.445  -6.404 -10.397  0.00  0.00    -0.017 C 
HETATM   23  C   UNK     0       2.258  -4.169  -8.529  0.00  0.00     0.012 C 
HETATM   24  C   UNK     0      -0.865   4.208 -11.915  0.00  0.00     0.010 C 
HETATM   25  C   UNK     0       3.741  -4.046 -10.543  0.00  0.00     0.016 C 
HETATM   26  C   UNK     0       1.459  -6.552  -8.848  0.00  0.00     0.140 C 
HETATM   27  C   UNK     0       2.459  -5.635  -8.155  0.00  0.00     0.034 C 
HETATM   28  C   UNK     0       0.120   4.571  -9.627  0.00  0.00     0.015 C 
HETATM   29  C   UNK     0      -2.306   4.063  -9.838  0.00  0.00     0.015 C 
HETATM   30  C   UNK     0       2.820  -6.905 -10.925  0.00  0.00     0.018 C 
HETATM   31  C   UNK     0       0.388  -7.324 -11.043  0.00  0.00     0.018 C 
ENDROOT
BRANCH  11  32
HETATM   32  O   UNK     0      -1.581   1.497 -13.117  0.00  0.00    -0.395 OA
HETATM   33  H   UNK     0      -1.980   0.619 -12.999  0.00  0.00     0.210 HD
ENDBRANCH  11  32
BRANCH  26  34
HETATM   34  O   UNK     0       1.768  -7.887  -8.445  0.00  0.00    -0.316 OA
BRANCH  34  35
HETATM   35  C   UNK     0       1.058  -8.358  -7.379  0.00  0.00     0.255 C 
HETATM   36  O   UNK     0       1.497  -9.037  -6.459  0.00  0.00    -0.266 OA
HETATM   37  C   UNK     0      -0.370  -7.918  -7.490  0.00  0.00     0.126 C 
ENDBRANCH  34  35
ENDBRANCH  26  34
TORSDOF 3
ENDMDL
MODEL 7
REMARK VINA RESULT:      -6.3      5.335      8.015
REMARK  3 active torsions:
REMARK  status: ('A' for Active; 'I' for Inactive)
REMARK    1  A    between atoms: O_2  and  C_14 
REMARK    2  A    between atoms: O_3  and  C_29 
REMARK    3  A    between atoms: O_3  and  C_35 
ROOT
HETATM    1  O   UNK     0      -2.500 -10.203 -15.526  0.00  0.00    -0.378 OA
HETATM    2  C   UNK     0      -3.340  -8.705 -13.773  0.00  0.00    -0.002 C 
HETATM    3  C   UNK     0      -2.278  -9.818 -14.131  0.00  0.00     0.073 C 
HETATM    4  C   UNK     0      -4.854  -9.345 -13.805  0.00  0.00    -0.029 C 
HETATM    5  C   UNK     0      -0.810  -9.371 -14.218  0.00  0.00     0.035 C 
HETATM    6  C   UNK     0      -0.870  -8.467 -15.442  0.00  0.00     0.014 C 
HETATM    7  C   UNK     0      -4.890 -10.513 -12.744  0.00  0.00     0.003 C 
HETATM    8  C   UNK     0      -6.331 -11.071 -12.351  0.00  0.00    -0.035 C 
HETATM    9  C   UNK     0      -3.208  -7.518 -14.781  0.00  0.00     0.045 C 
HETATM   10  C   UNK     0      -2.420 -11.069 -13.248  0.00  0.00     0.040 C 
HETATM   11  C   UNK     0      -1.767  -7.204 -15.234  0.00  0.00     0.130 C 
HETATM   12  C   UNK     0      -3.847 -11.604 -13.094  0.00  0.00     0.009 C 
HETATM   13  C   UNK     0      -7.211  -9.828 -11.940  0.00  0.00     0.004 C 
HETATM   14  C   UNK     0      -5.929  -8.262 -13.476  0.00  0.00     0.011 C 
HETATM   15  C   UNK     0      -1.613  -9.433 -16.377  0.00  0.00     0.181 C 
HETATM   16  C   UNK     0       0.006  -8.813 -13.060  0.00  0.00     0.017 C 
HETATM   17  C   UNK     0       0.551  -8.123 -15.915  0.00  0.00     0.015 C 
HETATM   18  C   UNK     0      -7.307  -8.808 -13.091  0.00  0.00     0.007 C 
HETATM   19  C   UNK     0      -3.030  -8.133 -12.347  0.00  0.00     0.019 C 
HETATM   20  C   UNK     0      -5.247  -9.880 -15.222  0.00  0.00     0.016 C 
HETATM   21  C   UNK     0       1.464  -8.492 -13.501  0.00  0.00    -0.047 C 
HETATM   22  C   UNK     0      -8.582 -10.152 -11.237  0.00  0.00    -0.017 C 
HETATM   23  C   UNK     0      -6.184 -11.989 -11.098  0.00  0.00     0.012 C 
HETATM   24  C   UNK     0       1.480  -7.629 -14.792  0.00  0.00     0.010 C 
HETATM   25  C   UNK     0      -6.949 -11.926 -13.482  0.00  0.00     0.016 C 
HETATM   26  C   UNK     0      -8.313 -11.111 -10.042  0.00  0.00     0.140 C 
HETATM   27  C   UNK     0      -7.504 -12.346 -10.418  0.00  0.00     0.034 C 
HETATM   28  C   UNK     0       2.198  -9.818 -13.778  0.00  0.00     0.015 C 
HETATM   29  C   UNK     0       2.231  -7.763 -12.377  0.00  0.00     0.015 C 
HETATM   30  C   UNK     0      -9.511 -10.903 -12.235  0.00  0.00     0.018 C 
HETATM   31  C   UNK     0      -9.369  -8.902 -10.792  0.00  0.00     0.018 C 
ENDROOT
BRANCH  11  32
HETATM   32  O   UNK     0      -1.209  -6.267 -14.322  0.00  0.00    -0.395 OA
HETATM   33  H   UNK     0      -0.511  -6.719 -13.819  0.00  0.00     0.210 HD
ENDBRANCH  11  32
BRANCH  26  34
HETATM   34  O   UNK     0      -9.527 -11.573  -9.447  0.00  0.00    -0.316 OA
BRANCH  34  35
HETATM   35  C   UNK     0      -9.584 -11.490  -8.086  0.00  0.00     0.255 C 
HETATM   36  O   UNK     0      -8.929 -12.153  -7.292  0.00  0.00    -0.266 OA
HETATM   37  C   UNK     0     -10.583 -10.448  -7.686  0.00  0.00     0.126 C 
ENDBRANCH  34  35
ENDBRANCH  26  34
TORSDOF 3
ENDMDL
MODEL 8
REMARK VINA RESULT:      -6.1      1.895      2.894
REMARK  3 active torsions:
REMARK  status: ('A' for Active; 'I' for Inactive)
REMARK    1  A    between atoms: O_2  and  C_14 
REMARK    2  A    between atoms: O_3  and  C_29 
REMARK    3  A    between atoms: O_3  and  C_35 
ROOT
HETATM    1  O   UNK     0       1.820  -0.041 -13.789  0.00  0.00    -0.378 OA
HETATM    2  C   UNK     0      -0.449  -0.976 -13.769  0.00  0.00    -0.002 C 
HETATM    3  C   UNK     0       0.766  -0.498 -12.881  0.00  0.00     0.073 C 
HETATM    4  C   UNK     0      -0.020  -2.308 -14.634  0.00  0.00    -0.029 C 
HETATM    5  C   UNK     0       0.560   0.785 -12.060  0.00  0.00     0.035 C 
HETATM    6  C   UNK     0       0.453   1.813 -13.178  0.00  0.00     0.014 C 
HETATM    7  C   UNK     0       0.388  -3.426 -13.597  0.00  0.00     0.003 C 
HETATM    8  C   UNK     0       0.524  -4.908 -14.170  0.00  0.00    -0.035 C 
HETATM    9  C   UNK     0      -0.894   0.189 -14.712  0.00  0.00     0.045 C 
HETATM   10  C   UNK     0       1.331  -1.628 -12.004  0.00  0.00     0.040 C 
HETATM   11  C   UNK     0      -0.794   1.600 -14.096  0.00  0.00     0.130 C 
HETATM   12  C   UNK     0       1.578  -2.956 -12.725  0.00  0.00     0.009 C 
HETATM   13  C   UNK     0      -0.813  -5.231 -14.941  0.00  0.00     0.004 C 
HETATM   14  C   UNK     0      -1.196  -2.792 -15.539  0.00  0.00     0.011 C 
HETATM   15  C   UNK     0       1.704   1.394 -13.964  0.00  0.00     0.181 C 
HETATM   16  C   UNK     0      -0.462   0.955 -10.944  0.00  0.00     0.017 C 
HETATM   17  C   UNK     0       0.536   3.233 -12.599  0.00  0.00     0.015 C 
HETATM   18  C   UNK     0      -1.059  -4.220 -16.077  0.00  0.00     0.007 C 
HETATM   19  C   UNK     0      -1.668  -1.309 -12.843  0.00  0.00     0.019 C 
HETATM   20  C   UNK     0       1.156  -2.024 -15.625  0.00  0.00     0.016 C 
HETATM   21  C   UNK     0      -0.374   2.375 -10.312  0.00  0.00    -0.047 C 
HETATM   22  C   UNK     0      -1.032  -6.736 -15.347  0.00  0.00    -0.017 C 
HETATM   23  C   UNK     0       0.636  -5.897 -12.968  0.00  0.00     0.012 C 
HETATM   24  C   UNK     0      -0.404   3.477 -11.405  0.00  0.00     0.010 C 
HETATM   25  C   UNK     0       1.798  -5.081 -15.030  0.00  0.00     0.016 C 
HETATM   26  C   UNK     0      -0.846  -7.624 -14.082  0.00  0.00     0.140 C 
HETATM   27  C   UNK     0       0.460  -7.367 -13.341  0.00  0.00     0.034 C 
HETATM   28  C   UNK     0       0.950   2.484  -9.529  0.00  0.00     0.015 C 
HETATM   29  C   UNK     0      -1.524   2.603  -9.308  0.00  0.00     0.015 C 
HETATM   30  C   UNK     0       0.056  -7.160 -16.376  0.00  0.00     0.018 C 
HETATM   31  C   UNK     0      -2.386  -7.009 -16.034  0.00  0.00     0.018 C 
ENDROOT
BRANCH  11  32
HETATM   32  O   UNK     0      -2.023   1.887 -13.443  0.00  0.00    -0.395 OA
HETATM   33  H   UNK     0      -2.388   2.698 -13.836  0.00  0.00     0.210 HD
ENDBRANCH  11  32
BRANCH  26  34
HETATM   34  O   UNK     0      -0.879  -9.016 -14.400  0.00  0.00    -0.316 OA
BRANCH  34  35
HETATM   35  C   UNK     0      -1.479  -9.817 -13.473  0.00  0.00     0.255 C 
HETATM   36  O   UNK     0      -0.945 -10.717 -12.838  0.00  0.00    -0.266 OA
HETATM   37  C   UNK     0      -2.922  -9.433 -13.333  0.00  0.00     0.126 C 
ENDBRANCH  34  35
ENDBRANCH  26  34
TORSDOF 3
ENDMDL
MODEL 9
REMARK VINA RESULT:      -6.0      2.342      8.741
REMARK  3 active torsions:
REMARK  status: ('A' for Active; 'I' for Inactive)
REMARK    1  A    between atoms: O_2  and  C_14 
REMARK    2  A    between atoms: O_3  and  C_29 
REMARK    3  A    between atoms: O_3  and  C_35 
ROOT
HETATM    1  O   UNK     0       0.187  -6.863 -15.594  0.00  0.00    -0.378 OA
HETATM    2  C   UNK     0      -0.367  -6.487 -13.233  0.00  0.00    -0.002 C 
HETATM    3  C   UNK     0      -0.942  -6.602 -14.699  0.00  0.00     0.073 C 
HETATM    4  C   UNK     0       0.593  -5.157 -13.112  0.00  0.00    -0.029 C 
HETATM    5  C   UNK     0      -1.805  -7.837 -15.008  0.00  0.00     0.035 C 
HETATM    6  C   UNK     0      -0.759  -8.938 -14.901  0.00  0.00     0.014 C 
HETATM    7  C   UNK     0      -0.300  -3.903 -13.462  0.00  0.00     0.003 C 
HETATM    8  C   UNK     0       0.307  -2.475 -13.096  0.00  0.00    -0.035 C 
HETATM    9  C   UNK     0       0.426  -7.787 -12.882  0.00  0.00     0.045 C 
HETATM   10  C   UNK     0      -1.642  -5.312 -15.157  0.00  0.00     0.040 C 
HETATM   11  C   UNK     0      -0.166  -9.089 -13.463  0.00  0.00     0.130 C 
HETATM   12  C   UNK     0      -0.867  -4.018 -14.899  0.00  0.00     0.009 C 
HETATM   13  C   UNK     0       0.737  -2.530 -11.580  0.00  0.00     0.004 C 
HETATM   14  C   UNK     0       1.195  -5.027 -11.677  0.00  0.00     0.011 C 
HETATM   15  C   UNK     0       0.311  -8.294 -15.796  0.00  0.00     0.181 C 
HETATM   16  C   UNK     0      -3.136  -8.162 -14.345  0.00  0.00     0.017 C 
HETATM   17  C   UNK     0      -1.319 -10.254 -15.460  0.00  0.00     0.015 C 
HETATM   18  C   UNK     0       1.768  -3.649 -11.333  0.00  0.00     0.007 C 
HETATM   19  C   UNK     0      -1.555  -6.384 -12.217  0.00  0.00     0.019 C 
HETATM   20  C   UNK     0       1.834  -5.227 -14.060  0.00  0.00     0.016 C 
HETATM   21  C   UNK     0      -3.747  -9.473 -14.921  0.00  0.00    -0.047 C 
HETATM   22  C   UNK     0       1.098  -1.151 -10.912  0.00  0.00    -0.017 C 
HETATM   23  C   UNK     0      -0.820  -1.405 -13.236  0.00  0.00     0.012 C 
HETATM   24  C   UNK     0      -2.708 -10.626 -14.910  0.00  0.00     0.010 C 
HETATM   25  C   UNK     0       1.451  -2.070 -14.055  0.00  0.00     0.016 C 
HETATM   26  C   UNK     0      -0.073  -0.157 -11.162  0.00  0.00     0.140 C 
HETATM   27  C   UNK     0      -0.481  -0.048 -12.625  0.00  0.00     0.034 C 
HETATM   28  C   UNK     0      -4.189  -9.212 -16.375  0.00  0.00     0.015 C 
HETATM   29  C   UNK     0      -5.001  -9.892 -14.124  0.00  0.00     0.015 C 
HETATM   30  C   UNK     0       2.364  -0.558 -11.596  0.00  0.00     0.018 C 
HETATM   31  C   UNK     0       1.442  -1.253  -9.411  0.00  0.00     0.018 C 
ENDROOT
BRANCH  11  32
HETATM   32  O   UNK     0      -1.099  -9.609 -12.526  0.00  0.00    -0.395 OA
HETATM   33  H   UNK     0      -1.853  -9.969 -13.023  0.00  0.00     0.210 HD
ENDBRANCH  11  32
BRANCH  26  34
HETATM   34  O   UNK     0       0.245   1.162 -10.717  0.00  0.00    -0.316 OA
BRANCH  34  35
HETATM   35  C   UNK     0      -0.788   1.863 -10.166  0.00  0.00     0.255 C 
HETATM   36  O   UNK     0      -1.331   2.850 -10.644  0.00  0.00    -0.266 OA
HETATM   37  C   UNK     0      -1.179   1.240  -8.860  0.00  0.00     0.126 C 
ENDBRANCH  34  35
ENDBRANCH  26  34
TORSDOF 3
ENDMDL
