MODEL 1
REMARK VINA RESULT:      -7.6      0.000      0.000
REMARK  7 active torsions:
REMARK  status: ('A' for Active; 'I' for Inactive)
REMARK    1  A    between atoms: O_1  and  C_12 
REMARK    2  A    between atoms: O_2  and  C_23 
REMARK    3  A    between atoms: O_2  and  C_37 
REMARK    4  A    between atoms: O_3  and  C_35 
REMARK    5  A    between atoms: O_6  and  C_43 
REMARK    6  A    between atoms: C_28  and  C_35 
REMARK    7  A    between atoms: C_37  and  C_38 
ROOT
HETATM    1  O   UNK     0       1.774  -0.094 -15.670  0.00  0.00    -0.395 OA
HETATM    2  H   UNK     0       1.143   0.515 -16.088  0.00  0.00     0.210 HD
ENDROOT
BRANCH   1   3
HETATM    3  C   UNK     0       1.050  -1.000 -14.840  0.00  0.00     0.128 C 
HETATM    4  C   UNK     0       1.424  -0.805 -13.334  0.00  0.00    -0.002 C 
HETATM    5  C   UNK     0       0.777  -1.977 -12.490  0.00  0.00     0.009 C 
HETATM    6  C   UNK     0       0.853   0.625 -12.727  0.00  0.00    -0.010 C 
HETATM    7  C   UNK     0       2.979  -0.837 -13.203  0.00  0.00     0.019 C 
HETATM    8  C   UNK     0       0.872  -3.465 -13.062  0.00  0.00    -0.035 C 
HETATM    9  C   UNK     0       1.174  -1.861 -11.003  0.00  0.00     0.033 C 
HETATM   10  C   UNK     0       0.457  -3.447 -14.570  0.00  0.00     0.007 C 
HETATM   11  C   UNK     0      -0.159  -4.350 -12.273  0.00  0.00     0.012 C 
HETATM   12  C   UNK     0       2.270  -4.100 -12.860  0.00  0.00     0.016 C 
HETATM   13  C   UNK     0       1.280  -2.420 -15.366  0.00  0.00     0.038 C 
HETATM   14  C   UNK     0       0.337  -4.859 -15.270  0.00  0.00    -0.016 C 
HETATM   15  C   UNK     0      -0.051  -5.962 -14.240  0.00  0.00     0.140 C 
HETATM   16  C   UNK     0       1.633  -5.303 -15.987  0.00  0.00     0.018 C 
HETATM   17  C   UNK     0      -0.752  -4.749 -16.374  0.00  0.00     0.018 C 
HETATM   18  C   UNK     0      -0.893  -5.408 -13.100  0.00  0.00     0.034 C 
HETATM   19  C   UNK     0       1.172  -0.464 -10.467  0.00  0.00    -0.022 C 
HETATM   20  C   UNK     0       1.024   0.665 -11.187  0.00  0.00    -0.069 C 
HETATM   21  C   UNK     0       1.054   2.011 -10.433  0.00  0.00     0.037 C 
HETATM   22  C   UNK     0       1.908   3.073 -11.181  0.00  0.00    -0.036 C 
HETATM   23  C   UNK     0      -0.371   2.509 -10.042  0.00  0.00     0.096 C 
HETATM   24  C   UNK     0       1.429   3.173 -12.647  0.00  0.00     0.011 C 
HETATM   25  C   UNK     0       1.811   4.455 -10.491  0.00  0.00     0.010 C 
HETATM   26  C   UNK     0       3.407   2.678 -11.141  0.00  0.00     0.016 C 
HETATM   27  C   UNK     0       1.553   1.846 -13.403  0.00  0.00     0.015 C 
HETATM   28  C   UNK     0       0.389   4.911 -10.203  0.00  0.00     0.006 C 
HETATM   29  C   UNK     0      -0.356   3.886  -9.347  0.00  0.00    -0.004 C 
HETATM   30  C   UNK     0      -1.775   4.399  -9.066  0.00  0.00     0.011 C 
HETATM   31  C   UNK     0      -0.673   0.784 -13.012  0.00  0.00     0.021 C 
BRANCH  15  32
HETATM   32  O   UNK     0      -0.758  -7.029 -14.873  0.00  0.00    -0.311 OA
BRANCH  32  33
HETATM   33  C   UNK     0      -1.203  -8.031 -14.050  0.00  0.00     0.293 C 
HETATM   34  O   UNK     0      -0.473  -8.680 -13.309  0.00  0.00    -0.259 OA
BRANCH  33  35
HETATM   35  C   UNK     0      -2.649  -8.253 -14.142  0.00  0.00     0.039 A 
HETATM   36  C   UNK     0      -3.236  -8.449 -15.386  0.00  0.00     0.020 A 
HETATM   37  C   UNK     0      -4.612  -8.661 -15.474  0.00  0.00     0.037 A 
HETATM   38  C   UNK     0      -5.390  -8.676 -14.316  0.00  0.00     0.065 A 
HETATM   39  C   UNK     0      -4.793  -8.477 -13.071  0.00  0.00     0.037 A 
HETATM   40  C   UNK     0      -3.416  -8.265 -12.983  0.00  0.00     0.020 A 
BRANCH  38  41
HETATM   41  O   UNK     0      -6.732  -8.884 -14.401  0.00  0.00    -0.361 OA
HETATM   42  H   UNK     0      -7.130  -8.734 -13.526  0.00  0.00     0.217 HD
ENDBRANCH  38  41
ENDBRANCH  33  35
ENDBRANCH  32  33
ENDBRANCH  15  32
BRANCH  23  43
HETATM   43  C   UNK     0      -1.009   1.509  -9.115  0.00  0.00     0.144 C 
HETATM   44  O   UNK     0      -1.892   0.725  -9.428  0.00  0.00    -0.650 OA
BRANCH  43  45
HETATM   45  O   UNK     0      -0.471   1.596  -7.873  0.00  0.00    -0.776 OA
HETATM   46  H   UNK     0      -1.160   1.605  -7.176  0.00  0.00     0.167 HD
ENDBRANCH  43  45
ENDBRANCH  23  43
ENDBRANCH   1   3
TORSDOF 7
ENDMDL
MODEL 2
REMARK VINA RESULT:      -7.6      3.611      4.547
REMARK  7 active torsions:
REMARK  status: ('A' for Active; 'I' for Inactive)
REMARK    1  A    between atoms: O_1  and  C_12 
REMARK    2  A    between atoms: O_2  and  C_23 
REMARK    3  A    between atoms: O_2  and  C_37 
REMARK    4  A    between atoms: O_3  and  C_35 
REMARK    5  A    between atoms: O_6  and  C_43 
REMARK    6  A    between atoms: C_28  and  C_35 
REMARK    7  A    between atoms: C_37  and  C_38 
ROOT
HETATM    1  O   UNK     0       0.086  -2.595 -14.391  0.00  0.00    -0.395 OA
HETATM    2  H   UNK     0       0.889  -2.247 -14.815  0.00  0.00     0.210 HD
ENDROOT
BRANCH   1   3
HETATM    3  C   UNK     0       0.386  -2.899 -13.031  0.00  0.00     0.128 C 
HETATM    4  C   UNK     0       1.155  -1.721 -12.346  0.00  0.00    -0.002 C 
HETATM    5  C   UNK     0       1.663  -2.199 -10.925  0.00  0.00     0.009 C 
HETATM    6  C   UNK     0       0.192  -0.395 -12.116  0.00  0.00    -0.010 C 
HETATM    7  C   UNK     0       2.365  -1.330 -13.251  0.00  0.00     0.019 C 
HETATM    8  C   UNK     0       2.322  -3.648 -10.803  0.00  0.00    -0.035 C 
HETATM    9  C   UNK     0       2.485  -1.086 -10.239  0.00  0.00     0.033 C 
HETATM   10  C   UNK     0       1.405  -4.677 -11.543  0.00  0.00     0.007 C 
HETATM   11  C   UNK     0       2.369  -4.028  -9.280  0.00  0.00     0.012 C 
HETATM   12  C   UNK     0       3.778  -3.694 -11.332  0.00  0.00     0.016 C 
HETATM   13  C   UNK     0       1.125  -4.240 -12.991  0.00  0.00     0.038 C 
HETATM   14  C   UNK     0       1.814  -6.196 -11.397  0.00  0.00    -0.016 C 
HETATM   15  C   UNK     0       2.548  -6.450 -10.045  0.00  0.00     0.140 C 
HETATM   16  C   UNK     0       2.721  -6.704 -12.541  0.00  0.00     0.018 C 
HETATM   17  C   UNK     0       0.513  -7.046 -11.467  0.00  0.00     0.018 C 
HETATM   18  C   UNK     0       2.081  -5.496  -8.954  0.00  0.00     0.034 C 
HETATM   19  C   UNK     0       1.929   0.292 -10.410  0.00  0.00    -0.022 C 
HETATM   20  C   UNK     0       0.912   0.646 -11.220  0.00  0.00    -0.069 C 
HETATM   21  C   UNK     0       0.495   2.131 -11.247  0.00  0.00     0.037 C 
HETATM   22  C   UNK     0       0.237   2.631 -12.697  0.00  0.00    -0.036 C 
HETATM   23  C   UNK     0      -0.667   2.444 -10.257  0.00  0.00     0.096 C 
HETATM   24  C   UNK     0      -0.755   1.677 -13.398  0.00  0.00     0.011 C 
HETATM   25  C   UNK     0      -0.318   4.076 -12.699  0.00  0.00     0.010 C 
HETATM   26  C   UNK     0       1.570   2.683 -13.489  0.00  0.00     0.016 C 
HETATM   27  C   UNK     0      -0.236   0.237 -13.478  0.00  0.00     0.015 C 
HETATM   28  C   UNK     0      -1.496   4.294 -11.762  0.00  0.00     0.006 C 
HETATM   29  C   UNK     0      -1.136   3.912 -10.326  0.00  0.00    -0.004 C 
HETATM   30  C   UNK     0      -2.346   4.169  -9.417  0.00  0.00     0.011 C 
HETATM   31  C   UNK     0      -1.127  -0.783 -11.380  0.00  0.00     0.021 C 
BRANCH  15  32
HETATM   32  O   UNK     0       2.363  -7.796  -9.605  0.00  0.00    -0.311 OA
BRANCH  32  33
HETATM   33  C   UNK     0       2.428  -8.003  -8.252  0.00  0.00     0.293 C 
HETATM   34  O   UNK     0       3.400  -7.711  -7.563  0.00  0.00    -0.259 OA
BRANCH  33  35
HETATM   35  C   UNK     0       1.214  -8.612  -7.703  0.00  0.00     0.039 A 
HETATM   36  C   UNK     0      -0.017  -8.004  -7.918  0.00  0.00     0.020 A 
HETATM   37  C   UNK     0      -1.173  -8.584  -7.396  0.00  0.00     0.037 A 
HETATM   38  C   UNK     0      -1.090  -9.767  -6.662  0.00  0.00     0.065 A 
HETATM   39  C   UNK     0       0.150 -10.370  -6.451  0.00  0.00     0.037 A 
HETATM   40  C   UNK     0       1.307  -9.791  -6.973  0.00  0.00     0.020 A 
BRANCH  38  41
HETATM   41  O   UNK     0      -2.217 -10.334  -6.154  0.00  0.00    -0.361 OA
HETATM   42  H   UNK     0      -2.060 -10.568  -5.223  0.00  0.00     0.217 HD
ENDBRANCH  38  41
ENDBRANCH  33  35
ENDBRANCH  32  33
ENDBRANCH  15  32
BRANCH  23  43
HETATM   43  C   UNK     0      -0.214   2.150  -8.852  0.00  0.00     0.144 C 
HETATM   44  O   UNK     0      -0.637   1.241  -8.153  0.00  0.00    -0.650 OA
BRANCH  43  45
HETATM   45  O   UNK     0       0.732   3.037  -8.457  0.00  0.00    -0.776 OA
HETATM   46  H   UNK     0       1.635   2.664  -8.528  0.00  0.00     0.167 HD
ENDBRANCH  43  45
ENDBRANCH  23  43
ENDBRANCH   1   3
TORSDOF 7
ENDMDL
MODEL 3
REMARK VINA RESULT:      -7.1      2.666     10.755
REMARK  7 active torsions:
REMARK  status: ('A' for Active; 'I' for Inactive)
REMARK    1  A    between atoms: O_1  and  C_12 
REMARK    2  A    between atoms: O_2  and  C_23 
REMARK    3  A    between atoms: O_2  and  C_37 
REMARK    4  A    between atoms: O_3  and  C_35 
REMARK    5  A    between atoms: O_6  and  C_43 
REMARK    6  A    between atoms: C_28  and  C_35 
REMARK    7  A    between atoms: C_37  and  C_38 
ROOT
HETATM    1  O   UNK     0       0.819  -6.253 -11.388  0.00  0.00    -0.395 OA
HETATM    2  H   UNK     0       1.220  -5.647 -10.743  0.00  0.00     0.210 HD
ENDROOT
BRANCH   1   3
HETATM    3  C   UNK     0      -0.048  -5.505 -12.238  0.00  0.00     0.128 C 
HETATM    4  C   UNK     0      -0.412  -6.316 -13.525  0.00  0.00    -0.002 C 
HETATM    5  C   UNK     0      -1.177  -5.364 -14.531  0.00  0.00     0.009 C 
HETATM    6  C   UNK     0      -1.404  -7.600 -13.197  0.00  0.00    -0.010 C 
HETATM    7  C   UNK     0       0.910  -6.838 -14.171  0.00  0.00     0.019 C 
HETATM    8  C   UNK     0      -0.612  -3.886 -14.754  0.00  0.00    -0.035 C 
HETATM    9  C   UNK     0      -1.499  -6.107 -15.846  0.00  0.00     0.033 C 
HETATM   10  C   UNK     0      -0.316  -3.249 -13.357  0.00  0.00     0.007 C 
HETATM   11  C   UNK     0      -1.736  -3.044 -15.458  0.00  0.00     0.012 C 
HETATM   12  C   UNK     0       0.632  -3.850 -15.676  0.00  0.00     0.016 C 
HETATM   13  C   UNK     0       0.605  -4.148 -12.514  0.00  0.00     0.038 C 
HETATM   14  C   UNK     0       0.103  -1.726 -13.367  0.00  0.00    -0.016 C 
HETATM   15  C   UNK     0      -0.525  -0.981 -14.584  0.00  0.00     0.140 C 
HETATM   16  C   UNK     0       1.633  -1.508 -13.406  0.00  0.00     0.018 C 
HETATM   17  C   UNK     0      -0.389  -1.090 -12.037  0.00  0.00     0.018 C 
HETATM   18  C   UNK     0      -1.858  -1.589 -14.998  0.00  0.00     0.034 C 
HETATM   19  C   UNK     0      -1.952  -7.521 -15.665  0.00  0.00    -0.022 C 
HETATM   20  C   UNK     0      -1.938  -8.220 -14.513  0.00  0.00    -0.069 C 
HETATM   21  C   UNK     0      -2.452  -9.675 -14.546  0.00  0.00     0.037 C 
HETATM   22  C   UNK     0      -1.529 -10.631 -13.738  0.00  0.00    -0.036 C 
HETATM   23  C   UNK     0      -3.959  -9.786 -14.168  0.00  0.00     0.096 C 
HETATM   24  C   UNK     0      -1.321 -10.060 -12.318  0.00  0.00     0.011 C 
HETATM   25  C   UNK     0      -2.131 -12.055 -13.660  0.00  0.00     0.010 C 
HETATM   26  C   UNK     0      -0.160 -10.783 -14.452  0.00  0.00     0.016 C 
HETATM   27  C   UNK     0      -0.674  -8.671 -12.326  0.00  0.00     0.015 C 
HETATM   28  C   UNK     0      -3.585 -12.094 -13.217  0.00  0.00     0.006 C 
HETATM   29  C   UNK     0      -4.464 -11.243 -14.134  0.00  0.00    -0.004 C 
HETATM   30  C   UNK     0      -5.922 -11.332 -13.661  0.00  0.00     0.011 C 
HETATM   31  C   UNK     0      -2.651  -7.147 -12.377  0.00  0.00     0.021 C 
BRANCH  15  32
HETATM   32  O   UNK     0      -0.707   0.406 -14.298  0.00  0.00    -0.311 OA
BRANCH  32  33
HETATM   33  C   UNK     0      -0.354   1.278 -15.294  0.00  0.00     0.293 C 
HETATM   34  O   UNK     0      -0.931   1.351 -16.374  0.00  0.00    -0.259 OA
BRANCH  33  35
HETATM   35  C   UNK     0       0.789   2.125 -14.942  0.00  0.00     0.039 A 
HETATM   36  C   UNK     0       1.360   2.944 -15.908  0.00  0.00     0.020 A 
HETATM   37  C   UNK     0       2.447   3.751 -15.573  0.00  0.00     0.037 A 
HETATM   38  C   UNK     0       2.956   3.732 -14.275  0.00  0.00     0.065 A 
HETATM   39  C   UNK     0       2.377   2.906 -13.311  0.00  0.00     0.037 A 
HETATM   40  C   UNK     0       1.289   2.099 -13.646  0.00  0.00     0.020 A 
BRANCH  38  41
HETATM   41  O   UNK     0       4.016   4.519 -13.947  0.00  0.00    -0.361 OA
HETATM   42  H   UNK     0       4.813   4.175 -14.387  0.00  0.00     0.217 HD
ENDBRANCH  38  41
ENDBRANCH  33  35
ENDBRANCH  32  33
ENDBRANCH  15  32
BRANCH  23  43
HETATM   43  C   UNK     0      -4.779  -9.017 -15.170  0.00  0.00     0.144 C 
HETATM   44  O   UNK     0      -4.774  -9.208 -16.377  0.00  0.00    -0.650 OA
BRANCH  43  45
HETATM   45  O   UNK     0      -5.530  -8.073 -14.551  0.00  0.00    -0.776 OA
HETATM   46  H   UNK     0      -6.484  -8.173 -14.752  0.00  0.00     0.167 HD
ENDBRANCH  43  45
ENDBRANCH  23  43
ENDBRANCH   1   3
TORSDOF 7
ENDMDL
MODEL 4
REMARK VINA RESULT:      -6.9      2.070     10.503
REMARK  7 active torsions:
REMARK  status: ('A' for Active; 'I' for Inactive)
REMARK    1  A    between atoms: O_1  and  C_12 
REMARK    2  A    between atoms: O_2  and  C_23 
REMARK    3  A    between atoms: O_2  and  C_37 
REMARK    4  A    between atoms: O_3  and  C_35 
REMARK    5  A    between atoms: O_6  and  C_43 
REMARK    6  A    between atoms: C_28  and  C_35 
REMARK    7  A    between atoms: C_37  and  C_38 
ROOT
HETATM    1  O   UNK     0       1.852  -7.031 -11.226  0.00  0.00    -0.395 OA
HETATM    2  H   UNK     0       2.553  -6.615 -10.697  0.00  0.00     0.210 HD
ENDROOT
BRANCH   1   3
HETATM    3  C   UNK     0       0.891  -6.037 -11.573  0.00  0.00     0.128 C 
HETATM    4  C   UNK     0       0.151  -6.407 -12.901  0.00  0.00    -0.002 C 
HETATM    5  C   UNK     0      -0.726  -5.173 -13.360  0.00  0.00     0.009 C 
HETATM    6  C   UNK     0      -0.863  -7.701 -12.713  0.00  0.00    -0.010 C 
HETATM    7  C   UNK     0       1.223  -6.744 -13.985  0.00  0.00     0.019 C 
HETATM    8  C   UNK     0      -0.080  -3.714 -13.286  0.00  0.00    -0.035 C 
HETATM    9  C   UNK     0      -1.424  -5.471 -14.704  0.00  0.00     0.033 C 
HETATM   10  C   UNK     0       0.601  -3.541 -11.888  0.00  0.00     0.007 C 
HETATM   11  C   UNK     0      -1.244  -2.666 -13.405  0.00  0.00     0.012 C 
HETATM   12  C   UNK     0       0.910  -3.433 -14.444  0.00  0.00     0.016 C 
HETATM   13  C   UNK     0       1.597  -4.678 -11.605  0.00  0.00     0.038 C 
HETATM   14  C   UNK     0       1.162  -2.099 -11.567  0.00  0.00    -0.016 C 
HETATM   15  C   UNK     0       0.346  -1.002 -12.315  0.00  0.00     0.140 C 
HETATM   16  C   UNK     0       2.654  -1.922 -11.932  0.00  0.00     0.018 C 
HETATM   17  C   UNK     0       1.066  -1.884 -10.030  0.00  0.00     0.018 C 
HETATM   18  C   UNK     0      -1.103  -1.417 -12.531  0.00  0.00     0.034 C 
HETATM   19  C   UNK     0      -1.966  -6.860 -14.828  0.00  0.00    -0.022 C 
HETATM   20  C   UNK     0      -1.753  -7.877 -13.969  0.00  0.00    -0.069 C 
HETATM   21  C   UNK     0      -2.408  -9.237 -14.287  0.00  0.00     0.037 C 
HETATM   22  C   UNK     0      -1.425 -10.419 -14.052  0.00  0.00    -0.036 C 
HETATM   23  C   UNK     0      -3.787  -9.416 -13.584  0.00  0.00     0.096 C 
HETATM   24  C   UNK     0      -0.830 -10.314 -12.630  0.00  0.00     0.011 C 
HETATM   25  C   UNK     0      -2.136 -11.782 -14.235  0.00  0.00     0.010 C 
HETATM   26  C   UNK     0      -0.287 -10.385 -15.105  0.00  0.00     0.016 C 
HETATM   27  C   UNK     0      -0.063  -9.007 -12.404  0.00  0.00     0.015 C 
HETATM   28  C   UNK     0      -3.441 -11.914 -13.465  0.00  0.00     0.006 C 
HETATM   29  C   UNK     0      -4.418 -10.800 -13.842  0.00  0.00    -0.004 C 
HETATM   30  C   UNK     0      -5.724 -10.988 -13.058  0.00  0.00     0.011 C 
HETATM   31  C   UNK     0      -1.828  -7.485 -11.507  0.00  0.00     0.021 C 
BRANCH  15  32
HETATM   32  O   UNK     0       0.381   0.237 -11.606  0.00  0.00    -0.311 OA
BRANCH  32  33
HETATM   33  C   UNK     0      -0.085   1.333 -12.284  0.00  0.00     0.293 C 
HETATM   34  O   UNK     0      -0.007   1.469 -13.500  0.00  0.00    -0.259 OA
BRANCH  33  35
HETATM   35  C   UNK     0      -0.692   2.338 -11.407  0.00  0.00     0.039 A 
HETATM   36  C   UNK     0      -0.977   3.604 -11.907  0.00  0.00     0.020 A 
HETATM   37  C   UNK     0      -1.556   4.561 -11.074  0.00  0.00     0.037 A 
HETATM   38  C   UNK     0      -1.845   4.246  -9.746  0.00  0.00     0.065 A 
HETATM   39  C   UNK     0      -1.555   2.974  -9.252  0.00  0.00     0.037 A 
HETATM   40  C   UNK     0      -0.977   2.016 -10.086  0.00  0.00     0.020 A 
BRANCH  38  41
HETATM   41  O   UNK     0      -2.410   5.178  -8.933  0.00  0.00    -0.361 OA
HETATM   42  H   UNK     0      -2.840   5.857  -9.482  0.00  0.00     0.217 HD
ENDBRANCH  38  41
ENDBRANCH  33  35
ENDBRANCH  32  33
ENDBRANCH  15  32
BRANCH  23  43
HETATM   43  C   UNK     0      -4.736  -8.356 -14.078  0.00  0.00     0.144 C 
HETATM   44  O   UNK     0      -5.265  -7.506 -13.377  0.00  0.00    -0.650 OA
BRANCH  43  45
HETATM   45  O   UNK     0      -4.931  -8.472 -15.414  0.00  0.00    -0.776 OA
HETATM   46  H   UNK     0      -4.202  -8.062 -15.927  0.00  0.00     0.167 HD
ENDBRANCH  43  45
ENDBRANCH  23  43
ENDBRANCH   1   3
TORSDOF 7
ENDMDL
MODEL 5
REMARK VINA RESULT:      -6.4      2.308     10.335
REMARK  7 active torsions:
REMARK  status: ('A' for Active; 'I' for Inactive)
REMARK    1  A    between atoms: O_1  and  C_12 
REMARK    2  A    between atoms: O_2  and  C_23 
REMARK    3  A    between atoms: O_2  and  C_37 
REMARK    4  A    between atoms: O_3  and  C_35 
REMARK    5  A    between atoms: O_6  and  C_43 
REMARK    6  A    between atoms: C_28  and  C_35 
REMARK    7  A    between atoms: C_37  and  C_38 
ROOT
HETATM    1  O   UNK     0       2.805  -5.674 -11.128  0.00  0.00    -0.395 OA
HETATM    2  H   UNK     0       3.459  -5.107 -10.687  0.00  0.00     0.210 HD
ENDROOT
BRANCH   1   3
HETATM    3  C   UNK     0       1.657  -4.888 -11.438  0.00  0.00     0.128 C 
HETATM    4  C   UNK     0       1.001  -5.352 -12.781  0.00  0.00    -0.002 C 
HETATM    5  C   UNK     0      -0.116  -4.310 -13.192  0.00  0.00     0.009 C 
HETATM    6  C   UNK     0       0.280  -6.835 -12.645  0.00  0.00    -0.010 C 
HETATM    7  C   UNK     0       2.113  -5.416 -13.875  0.00  0.00     0.019 C 
HETATM    8  C   UNK     0       0.213  -2.753 -13.060  0.00  0.00    -0.035 C 
HETATM    9  C   UNK     0      -0.746  -4.695 -14.549  0.00  0.00     0.033 C 
HETATM   10  C   UNK     0       0.853  -2.496 -11.656  0.00  0.00     0.007 C 
HETATM   11  C   UNK     0      -1.144  -1.966 -13.140  0.00  0.00     0.012 C 
HETATM   12  C   UNK     0       1.116  -2.228 -14.205  0.00  0.00     0.016 C 
HETATM   13  C   UNK     0       2.065  -3.412 -11.415  0.00  0.00     0.038 C 
HETATM   14  C   UNK     0       1.104  -0.983 -11.277  0.00  0.00    -0.016 C 
HETATM   15  C   UNK     0       0.072  -0.052 -11.984  0.00  0.00     0.140 C 
HETATM   16  C   UNK     0       2.524  -0.486 -11.633  0.00  0.00     0.018 C 
HETATM   17  C   UNK     0       0.975  -0.852  -9.733  0.00  0.00     0.018 C 
HETATM   18  C   UNK     0      -1.260  -0.750 -12.218  0.00  0.00     0.034 C 
HETATM   19  C   UNK     0      -0.987  -6.161 -14.728  0.00  0.00    -0.022 C 
HETATM   20  C   UNK     0      -0.563  -7.143 -13.909  0.00  0.00    -0.069 C 
HETATM   21  C   UNK     0      -0.923  -8.597 -14.281  0.00  0.00     0.037 C 
HETATM   22  C   UNK     0       0.286  -9.556 -14.091  0.00  0.00    -0.036 C 
HETATM   23  C   UNK     0      -2.231  -9.085 -13.588  0.00  0.00     0.096 C 
HETATM   24  C   UNK     0       0.855  -9.385 -12.665  0.00  0.00     0.011 C 
HETATM   25  C   UNK     0      -0.128 -11.029 -14.328  0.00  0.00     0.010 C 
HETATM   26  C   UNK     0       1.385  -9.246 -15.140  0.00  0.00     0.016 C 
HETATM   27  C   UNK     0       1.335  -7.957 -12.386  0.00  0.00     0.015 C 
HETATM   28  C   UNK     0      -1.372 -11.459 -13.567  0.00  0.00     0.006 C 
HETATM   29  C   UNK     0      -2.561 -10.559 -13.901  0.00  0.00    -0.004 C 
HETATM   30  C   UNK     0      -3.795 -11.044 -13.127  0.00  0.00     0.011 C 
HETATM   31  C   UNK     0      -0.702  -6.871 -11.433  0.00  0.00     0.021 C 
BRANCH  15  32
HETATM   32  O   UNK     0      -0.146   1.139 -11.226  0.00  0.00    -0.311 OA
BRANCH  32  33
HETATM   33  C   UNK     0      -0.323   2.290 -11.949  0.00  0.00     0.293 C 
HETATM   34  O   UNK     0       0.085   2.446 -13.095  0.00  0.00    -0.259 OA
BRANCH  33  35
HETATM   35  C   UNK     0      -1.053   3.326 -11.215  0.00  0.00     0.039 A 
HETATM   36  C   UNK     0      -1.236   4.578 -11.792  0.00  0.00     0.020 A 
HETATM   37  C   UNK     0      -1.932   5.564 -11.094  0.00  0.00     0.037 A 
HETATM   38  C   UNK     0      -2.440   5.293  -9.824  0.00  0.00     0.065 A 
HETATM   39  C   UNK     0      -2.252   4.035  -9.252  0.00  0.00     0.037 A 
HETATM   40  C   UNK     0      -1.556   3.047  -9.950  0.00  0.00     0.020 A 
BRANCH  38  41
HETATM   41  O   UNK     0      -3.120   6.255  -9.143  0.00  0.00    -0.361 OA
HETATM   42  H   UNK     0      -3.367   5.907  -8.268  0.00  0.00     0.217 HD
ENDBRANCH  38  41
ENDBRANCH  33  35
ENDBRANCH  32  33
ENDBRANCH  15  32
BRANCH  23  43
HETATM   43  C   UNK     0      -3.382  -8.227 -14.042  0.00  0.00     0.144 C 
HETATM   44  O   UNK     0      -3.803  -8.165 -15.187  0.00  0.00    -0.650 OA
BRANCH  43  45
HETATM   45  O   UNK     0      -3.893  -7.523 -13.002  0.00  0.00    -0.776 OA
HETATM   46  H   UNK     0      -4.696  -7.947 -12.633  0.00  0.00     0.167 HD
ENDBRANCH  43  45
ENDBRANCH  23  43
ENDBRANCH   1   3
TORSDOF 7
ENDMDL
MODEL 6
REMARK VINA RESULT:      -6.1      2.286      3.706
REMARK  7 active torsions:
REMARK  status: ('A' for Active; 'I' for Inactive)
REMARK    1  A    between atoms: O_1  and  C_12 
REMARK    2  A    between atoms: O_2  and  C_23 
REMARK    3  A    between atoms: O_2  and  C_37 
REMARK    4  A    between atoms: O_3  and  C_35 
REMARK    5  A    between atoms: O_6  and  C_43 
REMARK    6  A    between atoms: C_28  and  C_35 
REMARK    7  A    between atoms: C_37  and  C_38 
ROOT
HETATM    1  O   UNK     0       3.548  -3.544 -12.960  0.00  0.00    -0.395 OA
HETATM    2  H   UNK     0       4.202  -4.262 -13.000  0.00  0.00     0.210 HD
ENDROOT
BRANCH   1   3
HETATM    3  C   UNK     0       2.392  -3.940 -13.693  0.00  0.00     0.128 C 
HETATM    4  C   UNK     0       1.129  -3.140 -13.231  0.00  0.00    -0.002 C 
HETATM    5  C   UNK     0      -0.155  -3.774 -13.903  0.00  0.00     0.009 C 
HETATM    6  C   UNK     0       1.198  -1.548 -13.681  0.00  0.00    -0.010 C 
HETATM    7  C   UNK     0       1.029  -3.233 -11.675  0.00  0.00     0.019 C 
HETATM    8  C   UNK     0      -0.289  -5.365 -13.930  0.00  0.00    -0.035 C 
HETATM    9  C   UNK     0      -1.433  -3.054 -13.422  0.00  0.00     0.033 C 
HETATM   10  C   UNK     0       1.066  -5.972 -14.420  0.00  0.00     0.007 C 
HETATM   11  C   UNK     0      -1.406  -5.736 -14.970  0.00  0.00     0.012 C 
HETATM   12  C   UNK     0      -0.720  -5.956 -12.564  0.00  0.00     0.016 C 
HETATM   13  C   UNK     0       2.248  -5.461 -13.579  0.00  0.00     0.038 C 
HETATM   14  C   UNK     0       1.077  -7.533 -14.663  0.00  0.00    -0.016 C 
HETATM   15  C   UNK     0      -0.340  -8.046 -15.064  0.00  0.00     0.140 C 
HETATM   16  C   UNK     0       1.553  -8.344 -13.436  0.00  0.00     0.018 C 
HETATM   17  C   UNK     0       2.095  -7.831 -15.799  0.00  0.00     0.018 C 
HETATM   18  C   UNK     0      -1.140  -6.987 -15.810  0.00  0.00     0.034 C 
HETATM   19  C   UNK     0      -1.304  -1.567 -13.311  0.00  0.00    -0.022 C 
HETATM   20  C   UNK     0      -0.166  -0.856 -13.427  0.00  0.00    -0.069 C 
HETATM   21  C   UNK     0      -0.255   0.677 -13.276  0.00  0.00     0.037 C 
HETATM   22  C   UNK     0       0.899   1.238 -12.399  0.00  0.00    -0.036 C 
HETATM   23  C   UNK     0      -0.417   1.404 -14.645  0.00  0.00     0.096 C 
HETATM   24  C   UNK     0       2.251   0.729 -12.946  0.00  0.00     0.011 C 
HETATM   25  C   UNK     0       0.881   2.786 -12.375  0.00  0.00     0.010 C 
HETATM   26  C   UNK     0       0.720   0.784 -10.926  0.00  0.00     0.016 C 
HETATM   27  C   UNK     0       2.353  -0.800 -12.943  0.00  0.00     0.015 C 
HETATM   28  C   UNK     0       0.793   3.431 -13.749  0.00  0.00     0.006 C 
HETATM   29  C   UNK     0      -0.439   2.940 -14.510  0.00  0.00    -0.004 C 
HETATM   30  C   UNK     0      -0.496   3.633 -15.878  0.00  0.00     0.011 C 
HETATM   31  C   UNK     0       1.493  -1.411 -15.206  0.00  0.00     0.021 C 
BRANCH  15  32
HETATM   32  O   UNK     0      -0.251  -9.223 -15.867  0.00  0.00    -0.311 OA
BRANCH  32  33
HETATM   33  C   UNK     0      -0.869 -10.341 -15.369  0.00  0.00     0.293 C 
HETATM   34  O   UNK     0      -0.277 -11.371 -15.065  0.00  0.00    -0.259 OA
BRANCH  33  35
HETATM   35  C   UNK     0      -2.320 -10.186 -15.234  0.00  0.00     0.039 A 
HETATM   36  C   UNK     0      -2.888 -10.120 -13.967  0.00  0.00     0.020 A 
HETATM   37  C   UNK     0      -4.269  -9.972 -13.838  0.00  0.00     0.037 A 
HETATM   38  C   UNK     0      -5.072  -9.891 -14.976  0.00  0.00     0.065 A 
HETATM   39  C   UNK     0      -4.493  -9.959 -16.243  0.00  0.00     0.037 A 
HETATM   40  C   UNK     0      -3.112 -10.107 -16.373  0.00  0.00     0.020 A 
BRANCH  38  41
HETATM   41  O   UNK     0      -6.419  -9.746 -14.850  0.00  0.00    -0.361 OA
HETATM   42  H   UNK     0      -6.743  -9.174 -15.568  0.00  0.00     0.217 HD
ENDBRANCH  38  41
ENDBRANCH  33  35
ENDBRANCH  32  33
ENDBRANCH  15  32
BRANCH  23  43
HETATM   43  C   UNK     0      -1.701   0.960 -15.294  0.00  0.00     0.144 C 
HETATM   44  O   UNK     0      -1.783   0.398 -16.376  0.00  0.00    -0.650 OA
BRANCH  43  45
HETATM   45  O   UNK     0      -2.765   1.271 -14.514  0.00  0.00    -0.776 OA
HETATM   46  H   UNK     0      -3.557   1.491 -15.046  0.00  0.00     0.167 HD
ENDBRANCH  43  45
ENDBRANCH  23  43
ENDBRANCH   1   3
TORSDOF 7
ENDMDL
MODEL 7
REMARK VINA RESULT:      -5.9      2.452     10.302
REMARK  7 active torsions:
REMARK  status: ('A' for Active; 'I' for Inactive)
REMARK    1  A    between atoms: O_1  and  C_12 
REMARK    2  A    between atoms: O_2  and  C_23 
REMARK    3  A    between atoms: O_2  and  C_37 
REMARK    4  A    between atoms: O_3  and  C_35 
REMARK    5  A    between atoms: O_6  and  C_43 
REMARK    6  A    between atoms: C_28  and  C_35 
REMARK    7  A    between atoms: C_37  and  C_38 
ROOT
HETATM    1  O   UNK     0       2.766  -4.984  -9.669  0.00  0.00    -0.395 OA
HETATM    2  H   UNK     0       2.634  -4.813  -8.721  0.00  0.00     0.210 HD
ENDROOT
BRANCH   1   3
HETATM    3  C   UNK     0       1.809  -4.226 -10.405  0.00  0.00     0.128 C 
HETATM    4  C   UNK     0       1.849  -4.592 -11.926  0.00  0.00    -0.002 C 
HETATM    5  C   UNK     0       0.944  -3.569 -12.724  0.00  0.00     0.009 C 
HETATM    6  C   UNK     0       1.266  -6.113 -12.219  0.00  0.00    -0.010 C 
HETATM    7  C   UNK     0       3.329  -4.504 -12.415  0.00  0.00     0.019 C 
HETATM    8  C   UNK     0       1.052  -2.017 -12.361  0.00  0.00    -0.035 C 
HETATM    9  C   UNK     0       1.006  -3.854 -14.240  0.00  0.00     0.033 C 
HETATM   10  C   UNK     0       0.988  -1.864 -10.806  0.00  0.00     0.007 C 
HETATM   11  C   UNK     0      -0.192  -1.290 -12.985  0.00  0.00     0.012 C 
HETATM   12  C   UNK     0       2.319  -1.348 -12.951  0.00  0.00     0.016 C 
HETATM   13  C   UNK     0       2.043  -2.741 -10.111  0.00  0.00     0.038 C 
HETATM   14  C   UNK     0       0.923  -0.382 -10.260  0.00  0.00    -0.016 C 
HETATM   15  C   UNK     0       0.232   0.563 -11.290  0.00  0.00     0.140 C 
HETATM   16  C   UNK     0       2.309   0.210  -9.917  0.00  0.00     0.018 C 
HETATM   17  C   UNK     0       0.120  -0.402  -8.929  0.00  0.00     0.018 C 
HETATM   18  C   UNK     0      -0.800  -0.171 -12.135  0.00  0.00     0.034 C 
HETATM   19  C   UNK     0       0.989  -5.307 -14.600  0.00  0.00    -0.022 C 
HETATM   20  C   UNK     0       1.091  -6.341 -13.742  0.00  0.00    -0.069 C 
HETATM   21  C   UNK     0       1.052  -7.768 -14.326  0.00  0.00     0.037 C 
HETATM   22  C   UNK     0       2.129  -8.685 -13.680  0.00  0.00    -0.036 C 
HETATM   23  C   UNK     0      -0.382  -8.379 -14.318  0.00  0.00     0.096 C 
HETATM   24  C   UNK     0       2.000  -8.621 -12.142  0.00  0.00     0.011 C 
HETATM   25  C   UNK     0       1.984 -10.147 -14.169  0.00  0.00     0.010 C 
HETATM   26  C   UNK     0       3.547  -8.228 -14.111  0.00  0.00     0.016 C 
HETATM   27  C   UNK     0       2.190  -7.205 -11.590  0.00  0.00     0.015 C 
HETATM   28  C   UNK     0       0.573 -10.702 -14.067  0.00  0.00     0.006 C 
HETATM   29  C   UNK     0      -0.420  -9.830 -14.837  0.00  0.00    -0.004 C 
HETATM   30  C   UNK     0      -1.823 -10.442 -14.723  0.00  0.00     0.011 C 
HETATM   31  C   UNK     0      -0.141  -6.306 -11.573  0.00  0.00     0.021 C 
BRANCH  15  32
HETATM   32  O   UNK     0      -0.393   1.666 -10.635  0.00  0.00    -0.311 OA
BRANCH  32  33
HETATM   33  C   UNK     0      -0.165   2.902 -11.183  0.00  0.00     0.293 C 
HETATM   34  O   UNK     0       0.768   3.151 -11.939  0.00  0.00    -0.259 OA
BRANCH  33  35
HETATM   35  C   UNK     0      -1.151   3.906 -10.774  0.00  0.00     0.039 A 
HETATM   36  C   UNK     0      -1.928   3.684  -9.644  0.00  0.00     0.020 A 
HETATM   37  C   UNK     0      -2.867   4.640  -9.254  0.00  0.00     0.037 A 
HETATM   38  C   UNK     0      -3.021   5.810  -9.997  0.00  0.00     0.065 A 
HETATM   39  C   UNK     0      -2.237   6.024 -11.131  0.00  0.00     0.037 A 
HETATM   40  C   UNK     0      -1.297   5.068 -11.521  0.00  0.00     0.020 A 
BRANCH  38  41
HETATM   41  O   UNK     0      -3.935   6.743  -9.617  0.00  0.00    -0.361 OA
HETATM   42  H   UNK     0      -4.735   6.289  -9.299  0.00  0.00     0.217 HD
ENDBRANCH  38  41
ENDBRANCH  33  35
ENDBRANCH  32  33
ENDBRANCH  15  32
BRANCH  23  43
HETATM   43  C   UNK     0      -1.284  -7.536 -15.179  0.00  0.00     0.144 C 
HETATM   44  O   UNK     0      -1.125  -7.331 -16.373  0.00  0.00    -0.650 OA
BRANCH  43  45
HETATM   45  O   UNK     0      -2.306  -7.026 -14.448  0.00  0.00    -0.776 OA
HETATM   46  H   UNK     0      -2.326  -7.395 -13.540  0.00  0.00     0.167 HD
ENDBRANCH  43  45
ENDBRANCH  23  43
ENDBRANCH   1   3
TORSDOF 7
ENDMDL
MODEL 8
REMARK VINA RESULT:      -5.9      2.242     10.096
REMARK  7 active torsions:
REMARK  status: ('A' for Active; 'I' for Inactive)
REMARK    1  A    between atoms: O_1  and  C_12 
REMARK    2  A    between atoms: O_2  and  C_23 
REMARK    3  A    between atoms: O_2  and  C_37 
REMARK    4  A    between atoms: O_3  and  C_35 
REMARK    5  A    between atoms: O_6  and  C_43 
REMARK    6  A    between atoms: C_28  and  C_35 
REMARK    7  A    between atoms: C_37  and  C_38 
ROOT
HETATM    1  O   UNK     0       3.109  -5.906 -10.213  0.00  0.00    -0.395 OA
HETATM    2  H   UNK     0       3.768  -5.874 -10.926  0.00  0.00     0.210 HD
ENDROOT
BRANCH   1   3
HETATM    3  C   UNK     0       2.011  -5.070 -10.569  0.00  0.00     0.128 C 
HETATM    4  C   UNK     0       1.670  -5.206 -12.090  0.00  0.00    -0.002 C 
HETATM    5  C   UNK     0       0.611  -4.097 -12.479  0.00  0.00     0.009 C 
HETATM    6  C   UNK     0       1.011  -6.680 -12.455  0.00  0.00    -0.010 C 
HETATM    7  C   UNK     0       2.985  -5.011 -12.910  0.00  0.00     0.019 C 
HETATM    8  C   UNK     0       0.827  -2.614 -11.926  0.00  0.00    -0.035 C 
HETATM    9  C   UNK     0       0.293  -4.153 -13.989  0.00  0.00     0.033 C 
HETATM   10  C   UNK     0       1.150  -2.695 -10.398  0.00  0.00     0.007 C 
HETATM   11  C   UNK     0      -0.523  -1.832 -12.109  0.00  0.00     0.012 C 
HETATM   12  C   UNK     0       1.918  -1.835 -12.702  0.00  0.00     0.016 C 
HETATM   13  C   UNK     0       2.331  -3.641 -10.123  0.00  0.00     0.038 C 
HETATM   14  C   UNK     0       1.242  -1.312  -9.637  0.00  0.00    -0.016 C 
HETATM   15  C   UNK     0       0.332  -0.242 -10.313  0.00  0.00     0.140 C 
HETATM   16  C   UNK     0       2.678  -0.745  -9.560  0.00  0.00     0.018 C 
HETATM   17  C   UNK     0       0.792  -1.548  -8.168  0.00  0.00     0.018 C 
HETATM   18  C   UNK     0      -0.887  -0.866 -10.978  0.00  0.00     0.034 C 
HETATM   19  C   UNK     0       0.167  -5.535 -14.547  0.00  0.00    -0.022 C 
HETATM   20  C   UNK     0       0.463  -6.682 -13.905  0.00  0.00    -0.069 C 
HETATM   21  C   UNK     0       0.261  -8.008 -14.668  0.00  0.00     0.037 C 
HETATM   22  C   UNK     0       1.451  -8.985 -14.452  0.00  0.00    -0.036 C 
HETATM   23  C   UNK     0      -1.135  -8.646 -14.399  0.00  0.00     0.096 C 
HETATM   24  C   UNK     0       1.706  -9.153 -12.938  0.00  0.00     0.011 C 
HETATM   25  C   UNK     0       1.170 -10.361 -15.103  0.00  0.00     0.010 C 
HETATM   26  C   UNK     0       2.726  -8.436 -15.144  0.00  0.00     0.016 C 
HETATM   27  C   UNK     0       2.046  -7.831 -12.243  0.00  0.00     0.015 C 
HETATM   28  C   UNK     0      -0.181 -10.959 -14.742  0.00  0.00     0.006 C 
HETATM   29  C   UNK     0      -1.320 -10.005 -15.105  0.00  0.00    -0.004 C 
HETATM   30  C   UNK     0      -2.661 -10.659 -14.742  0.00  0.00     0.011 C 
HETATM   31  C   UNK     0      -0.195  -7.000 -11.520  0.00  0.00     0.021 C 
BRANCH  15  32
HETATM   32  O   UNK     0      -0.097   0.738  -9.367  0.00  0.00    -0.311 OA
BRANCH  32  33
HETATM   33  C   UNK     0       0.425   1.995  -9.521  0.00  0.00     0.293 C 
HETATM   34  O   UNK     0       1.013   2.605  -8.634  0.00  0.00    -0.259 OA
BRANCH  33  35
HETATM   35  C   UNK     0       0.211   2.548 -10.861  0.00  0.00     0.039 A 
HETATM   36  C   UNK     0      -1.078   2.855 -11.280  0.00  0.00     0.020 A 
HETATM   37  C   UNK     0      -1.283   3.382 -12.555  0.00  0.00     0.037 A 
HETATM   38  C   UNK     0      -0.196   3.598 -13.403  0.00  0.00     0.065 A 
HETATM   39  C   UNK     0       1.094   3.286 -12.975  0.00  0.00     0.037 A 
HETATM   40  C   UNK     0       1.299   2.760 -11.699  0.00  0.00     0.020 A 
BRANCH  38  41
HETATM   41  O   UNK     0      -0.395   4.112 -14.646  0.00  0.00    -0.361 OA
HETATM   42  H   UNK     0      -1.344   4.286 -14.768  0.00  0.00     0.217 HD
ENDBRANCH  38  41
ENDBRANCH  33  35
ENDBRANCH  32  33
ENDBRANCH  15  32
BRANCH  23  43
HETATM   43  C   UNK     0      -2.210  -7.707 -14.876  0.00  0.00     0.144 C 
HETATM   44  O   UNK     0      -2.388  -7.375 -16.039  0.00  0.00    -0.650 OA
BRANCH  43  45
HETATM   45  O   UNK     0      -2.961  -7.269 -13.836  0.00  0.00    -0.776 OA
HETATM   46  H   UNK     0      -3.164  -7.989 -13.203  0.00  0.00     0.167 HD
ENDBRANCH  43  45
ENDBRANCH  23  43
ENDBRANCH   1   3
TORSDOF 7
ENDMDL
MODEL 9
REMARK VINA RESULT:      -5.7      1.301      2.115
REMARK  7 active torsions:
REMARK  status: ('A' for Active; 'I' for Inactive)
REMARK    1  A    between atoms: O_1  and  C_12 
REMARK    2  A    between atoms: O_2  and  C_23 
REMARK    3  A    between atoms: O_2  and  C_37 
REMARK    4  A    between atoms: O_3  and  C_35 
REMARK    5  A    between atoms: O_6  and  C_43 
REMARK    6  A    between atoms: C_28  and  C_35 
REMARK    7  A    between atoms: C_37  and  C_38 
ROOT
HETATM    1  O   UNK     0       1.425  -0.390 -15.753  0.00  0.00    -0.395 OA
HETATM    2  H   UNK     0       1.576  -0.840 -16.600  0.00  0.00     0.210 HD
ENDROOT
BRANCH   1   3
HETATM    3  C   UNK     0       0.727  -1.278 -14.883  0.00  0.00     0.128 C 
HETATM    4  C   UNK     0       1.205  -1.109 -13.403  0.00  0.00    -0.002 C 
HETATM    5  C   UNK     0       0.576  -2.266 -12.526  0.00  0.00     0.009 C 
HETATM    6  C   UNK     0       0.724   0.334 -12.751  0.00  0.00    -0.010 C 
HETATM    7  C   UNK     0       2.764  -1.194 -13.375  0.00  0.00     0.019 C 
HETATM    8  C   UNK     0       0.583  -3.752 -13.113  0.00  0.00    -0.035 C 
HETATM    9  C   UNK     0       1.074  -2.176 -11.068  0.00  0.00     0.033 C 
HETATM   10  C   UNK     0       0.071  -3.707 -14.590  0.00  0.00     0.007 C 
HETATM   11  C   UNK     0      -0.423  -4.609 -12.263  0.00  0.00     0.012 C 
HETATM   12  C   UNK     0       1.969  -4.435 -13.008  0.00  0.00     0.016 C 
HETATM   13  C   UNK     0       0.874  -2.701 -15.432  0.00  0.00     0.038 C 
HETATM   14  C   UNK     0      -0.142  -5.107 -15.291  0.00  0.00    -0.016 C 
HETATM   15  C   UNK     0      -0.499  -6.206 -14.244  0.00  0.00     0.140 C 
HETATM   16  C   UNK     0       1.088  -5.588 -16.095  0.00  0.00     0.018 C 
HETATM   17  C   UNK     0      -1.297  -4.952 -16.320  0.00  0.00     0.018 C 
HETATM   18  C   UNK     0      -1.245  -5.634 -13.048  0.00  0.00     0.034 C 
HETATM   19  C   UNK     0       1.154  -0.785 -10.523  0.00  0.00    -0.022 C 
HETATM   20  C   UNK     0       0.997   0.354 -11.225  0.00  0.00    -0.069 C 
HETATM   21  C   UNK     0       1.122   1.692 -10.465  0.00  0.00     0.037 C 
HETATM   22  C   UNK     0       1.960   2.731 -11.262  0.00  0.00    -0.036 C 
HETATM   23  C   UNK     0      -0.256   2.234  -9.979  0.00  0.00     0.096 C 
HETATM   24  C   UNK     0       1.390   2.861 -12.692  0.00  0.00     0.011 C 
HETATM   25  C   UNK     0       1.956   4.110 -10.558  0.00  0.00     0.010 C 
HETATM   26  C   UNK     0       3.445   2.286 -11.323  0.00  0.00     0.016 C 
HETATM   27  C   UNK     0       1.419   1.537 -13.463  0.00  0.00     0.015 C 
HETATM   28  C   UNK     0       0.572   4.610 -10.173  0.00  0.00     0.006 C 
HETATM   29  C   UNK     0      -0.149   3.603  -9.277  0.00  0.00    -0.004 C 
HETATM   30  C   UNK     0      -1.529   4.160  -8.900  0.00  0.00     0.011 C 
HETATM   31  C   UNK     0      -0.811   0.545 -12.933  0.00  0.00     0.021 C 
BRANCH  15  32
HETATM   32  O   UNK     0      -1.282  -7.244 -14.837  0.00  0.00    -0.311 OA
BRANCH  32  33
HETATM   33  C   UNK     0      -2.248  -7.800 -14.040  0.00  0.00     0.293 C 
HETATM   34  O   UNK     0      -3.437  -7.508 -14.104  0.00  0.00    -0.259 OA
BRANCH  33  35
HETATM   35  C   UNK     0      -1.719  -8.788 -13.096  0.00  0.00     0.039 A 
HETATM   36  C   UNK     0      -0.695  -9.640 -13.495  0.00  0.00     0.020 A 
HETATM   37  C   UNK     0      -0.190 -10.579 -12.596  0.00  0.00     0.037 A 
HETATM   38  C   UNK     0      -0.713 -10.661 -11.305  0.00  0.00     0.065 A 
HETATM   39  C   UNK     0      -1.740  -9.802 -10.913  0.00  0.00     0.037 A 
HETATM   40  C   UNK     0      -2.245  -8.862 -11.812  0.00  0.00     0.020 A 
BRANCH  38  41
HETATM   41  O   UNK     0      -0.220 -11.576 -10.428  0.00  0.00    -0.361 OA
HETATM   42  H   UNK     0      -0.532 -11.356  -9.533  0.00  0.00     0.217 HD
ENDBRANCH  38  41
ENDBRANCH  33  35
ENDBRANCH  32  33
ENDBRANCH  15  32
BRANCH  23  43
HETATM   43  C   UNK     0      -0.865   1.247  -9.018  0.00  0.00     0.144 C 
HETATM   44  O   UNK     0      -0.451   1.017  -7.892  0.00  0.00    -0.650 OA
BRANCH  43  45
HETATM   45  O   UNK     0      -1.942   0.640  -9.573  0.00  0.00    -0.776 OA
HETATM   46  H   UNK     0      -1.964   0.751 -10.547  0.00  0.00     0.167 HD
ENDBRANCH  43  45
ENDBRANCH  23  43
ENDBRANCH   1   3
TORSDOF 7
ENDMDL
