44587506
  -OEChem-04052509203D

 80 84  0     1  0  0  0  0  0999 V2000
    1.7858   -4.7237    2.6836 Br  0  0  0  0  0  0  0  0  0  0  0  0
    4.3675   -3.2440   -0.7619 Br  0  0  0  0  0  0  0  0  0  0  0  0
   -0.3134    0.5686    2.9288 Br  0  0  0  0  0  0  0  0  0  0  0  0
    6.1521    1.3239   -3.6645 Br  0  0  0  0  0  0  0  0  0  0  0  0
   -1.6893    1.1936   -2.6174 Br  0  0  0  0  0  0  0  0  0  0  0  0
   -5.7818    2.5002    1.1955 Br  0  0  0  0  0  0  0  0  0  0  0  0
   -2.4530   -3.5364    1.3790 O   0  0  0  0  0  0  0  0  0  0  0  0
    4.2265    1.0658    0.8140 O   0  0  0  0  0  0  0  0  0  0  0  0
    0.7822   -3.3837   -0.2889 O   0  0  0  0  0  0  0  0  0  0  0  0
    2.0131   -0.8477   -1.3563 O   0  0  0  0  0  0  0  0  0  0  0  0
    1.1852   -1.9158    3.8979 O   0  0  0  0  0  0  0  0  0  0  0  0
    6.2475   -1.5279   -2.5618 O   0  0  0  0  0  0  0  0  0  0  0  0
    2.5053    4.9111    1.0408 O   0  0  0  0  0  0  0  0  0  0  0  0
   -5.0739   -3.6780   -1.8858 O   0  0  0  0  0  0  0  0  0  0  0  0
   -4.4074    1.0165   -1.1468 O   0  0  0  0  0  0  0  0  0  0  0  0
   -3.6681   -3.3972    0.6604 N   0  0  0  0  0  0  0  0  0  0  0  0
    3.8140    2.2859    1.4085 N   0  0  0  0  0  0  0  0  0  0  0  0
    0.6989    3.5671    1.6979 N   0  0  0  0  0  0  0  0  0  0  0  0
   -4.3313   -1.4587   -2.0581 N   0  0  0  0  0  0  0  0  0  0  0  0
   -1.4029   -2.8472    0.6517 C   0  0  1  0  0  0  0  0  0  0  0  0
    3.4667    0.8645   -0.4060 C   0  0  1  0  0  0  0  0  0  0  0  0
   -0.0941   -3.6664    0.8051 C   0  0  2  0  0  0  0  0  0  0  0  0
    3.1753   -0.6532   -0.5463 C   0  0  2  0  0  0  0  0  0  0  0  0
   -1.9022   -2.8191   -0.7914 C   0  0  0  0  0  0  0  0  0  0  0  0
    2.1935    1.6810   -0.1942 C   0  0  0  0  0  0  0  0  0  0  0  0
   -1.2883   -1.4609    1.2548 C   0  0  0  0  0  0  0  0  0  0  0  0
    4.3155    1.3952   -1.5446 C   0  0  0  0  0  0  0  0  0  0  0  0
   -3.3419   -2.9911   -0.5166 C   0  0  0  0  0  0  0  0  0  0  0  0
    2.7094    2.6081    0.8313 C   0  0  0  0  0  0  0  0  0  0  0  0
    0.6510   -3.3602    2.0849 C   0  0  0  0  0  0  0  0  0  0  0  0
    4.3140   -1.4199   -1.1804 C   0  0  0  0  0  0  0  0  0  0  0  0
   -0.3937   -1.1613    2.2133 C   0  0  0  0  0  0  0  0  0  0  0  0
    5.1157    0.6027   -2.2800 C   0  0  0  0  0  0  0  0  0  0  0  0
    0.4981   -2.1902    2.7308 C   0  0  0  0  0  0  0  0  0  0  0  0
    5.2117   -0.8200   -1.9827 C   0  0  0  0  0  0  0  0  0  0  0  0
    1.9597    3.8255    1.2016 C   0  0  0  0  0  0  0  0  0  0  0  0
   -4.3505   -2.7476   -1.5674 C   0  0  0  0  0  0  0  0  0  0  0  0
   -0.2130    4.6034    2.1246 C   0  0  0  0  0  0  0  0  0  0  0  0
   -5.2230   -0.9957   -3.0860 C   0  0  0  0  0  0  0  0  0  0  0  0
   -1.1112    5.0960    0.9925 C   0  0  0  0  0  0  0  0  0  0  0  0
   -6.0939    0.1649   -2.6233 C   0  0  0  0  0  0  0  0  0  0  0  0
   -1.9891    4.0090    0.4226 C   0  0  0  0  0  0  0  0  0  0  0  0
   -5.2807    1.3858   -2.2104 C   0  0  0  0  0  0  0  0  0  0  0  0
    0.4389   -2.3243    5.0276 C   0  0  0  0  0  0  0  0  0  0  0  0
    7.3908   -1.5154   -1.7294 C   0  0  0  0  0  0  0  0  0  0  0  0
   -3.2554    3.7812    0.9615 C   0  0  0  0  0  0  0  0  0  0  0  0
   -1.5346    3.2322   -0.6429 C   0  0  0  0  0  0  0  0  0  0  0  0
   -3.6124    1.9994   -0.6307 C   0  0  0  0  0  0  0  0  0  0  0  0
   -2.3461    2.2274   -1.1696 C   0  0  0  0  0  0  0  0  0  0  0  0
   -4.0669    2.7764    0.4349 C   0  0  0  0  0  0  0  0  0  0  0  0
   -0.3495   -4.7332    0.7619 H   0  0  0  0  0  0  0  0  0  0  0  0
    2.9578   -1.0547    0.4521 H   0  0  0  0  0  0  0  0  0  0  0  0
   -1.6638   -1.8983   -1.3262 H   0  0  0  0  0  0  0  0  0  0  0  0
   -1.5718   -3.6830   -1.3777 H   0  0  0  0  0  0  0  0  0  0  0  0
    1.8400    2.2016   -1.0877 H   0  0  0  0  0  0  0  0  0  0  0  0
    1.3794    1.0962    0.2417 H   0  0  0  0  0  0  0  0  0  0  0  0
   -1.9840   -0.7015    0.9044 H   0  0  0  0  0  0  0  0  0  0  0  0
    4.2830    2.4650   -1.7390 H   0  0  0  0  0  0  0  0  0  0  0  0
    1.5714   -3.9433   -0.1877 H   0  0  0  0  0  0  0  0  0  0  0  0
    1.8249   -1.8015   -1.3787 H   0  0  0  0  0  0  0  0  0  0  0  0
    0.3839    2.6048    1.7742 H   0  0  0  0  0  0  0  0  0  0  0  0
   -3.6357   -0.8077   -1.7070 H   0  0  0  0  0  0  0  0  0  0  0  0
    0.3687    5.4425    2.5219 H   0  0  0  0  0  0  0  0  0  0  0  0
   -0.8110    4.1886    2.9433 H   0  0  0  0  0  0  0  0  0  0  0  0
   -5.8595   -1.8201   -3.4245 H   0  0  0  0  0  0  0  0  0  0  0  0
   -4.6022   -0.6876   -3.9343 H   0  0  0  0  0  0  0  0  0  0  0  0
   -1.7404    5.9170    1.3588 H   0  0  0  0  0  0  0  0  0  0  0  0
   -0.5005    5.5251    0.1874 H   0  0  0  0  0  0  0  0  0  0  0  0
   -6.7847    0.4452   -3.4263 H   0  0  0  0  0  0  0  0  0  0  0  0
   -6.6960   -0.1668   -1.7681 H   0  0  0  0  0  0  0  0  0  0  0  0
   -4.7050    1.7576   -3.0656 H   0  0  0  0  0  0  0  0  0  0  0  0
   -5.9604    2.1819   -1.8871 H   0  0  0  0  0  0  0  0  0  0  0  0
    1.0236   -2.0881    5.9219 H   0  0  0  0  0  0  0  0  0  0  0  0
    0.2512   -3.4031    5.0287 H   0  0  0  0  0  0  0  0  0  0  0  0
   -0.5127   -1.7865    5.1013 H   0  0  0  0  0  0  0  0  0  0  0  0
    8.1784   -2.0878   -2.2290 H   0  0  0  0  0  0  0  0  0  0  0  0
    7.1997   -1.9887   -0.7607 H   0  0  0  0  0  0  0  0  0  0  0  0
    7.7675   -0.4987   -1.5727 H   0  0  0  0  0  0  0  0  0  0  0  0
   -3.6033    4.3890    1.7937 H   0  0  0  0  0  0  0  0  0  0  0  0
   -0.5482    3.4159   -1.0625 H   0  0  0  0  0  0  0  0  0  0  0  0
  1 30  1  0  0  0  0
  2 31  1  0  0  0  0
  3 32  1  0  0  0  0
  4 33  1  0  0  0  0
  5 49  1  0  0  0  0
  6 50  1  0  0  0  0
  7 16  1  0  0  0  0
  7 20  1  0  0  0  0
  8 17  1  0  0  0  0
  8 21  1  0  0  0  0
  9 22  1  0  0  0  0
  9 59  1  0  0  0  0
 10 23  1  0  0  0  0
 10 60  1  0  0  0  0
 11 34  1  0  0  0  0
 11 44  1  0  0  0  0
 12 35  1  0  0  0  0
 12 45  1  0  0  0  0
 13 36  2  0  0  0  0
 14 37  2  0  0  0  0
 15 43  1  0  0  0  0
 15 48  1  0  0  0  0
 16 28  2  0  0  0  0
 17 29  2  0  0  0  0
 18 36  1  0  0  0  0
 18 38  1  0  0  0  0
 18 61  1  0  0  0  0
 19 37  1  0  0  0  0
 19 39  1  0  0  0  0
 19 62  1  0  0  0  0
 20 22  1  0  0  0  0
 20 24  1  0  0  0  0
 20 26  1  0  0  0  0
 21 23  1  0  0  0  0
 21 25  1  0  0  0  0
 21 27  1  0  0  0  0
 22 30  1  0  0  0  0
 22 51  1  0  0  0  0
 23 31  1  0  0  0  0
 23 52  1  0  0  0  0
 24 28  1  0  0  0  0
 24 53  1  0  0  0  0
 24 54  1  0  0  0  0
 25 29  1  0  0  0  0
 25 55  1  0  0  0  0
 25 56  1  0  0  0  0
 26 32  2  0  0  0  0
 26 57  1  0  0  0  0
 27 33  2  0  0  0  0
 27 58  1  0  0  0  0
 28 37  1  0  0  0  0
 29 36  1  0  0  0  0
 30 34  2  0  0  0  0
 31 35  2  0  0  0  0
 32 34  1  0  0  0  0
 33 35  1  0  0  0  0
 38 40  1  0  0  0  0
 38 63  1  0  0  0  0
 38 64  1  0  0  0  0
 39 41  1  0  0  0  0
 39 65  1  0  0  0  0
 39 66  1  0  0  0  0
 40 42  1  0  0  0  0
 40 67  1  0  0  0  0
 40 68  1  0  0  0  0
 41 43  1  0  0  0  0
 41 69  1  0  0  0  0
 41 70  1  0  0  0  0
 42 46  2  0  0  0  0
 42 47  1  0  0  0  0
 43 71  1  0  0  0  0
 43 72  1  0  0  0  0
 44 73  1  0  0  0  0
 44 74  1  0  0  0  0
 44 75  1  0  0  0  0
 45 76  1  0  0  0  0
 45 77  1  0  0  0  0
 45 78  1  0  0  0  0
 46 50  1  0  0  0  0
 46 79  1  0  0  0  0
 47 49  2  0  0  0  0
 47 80  1  0  0  0  0
 48 49  1  0  0  0  0
 48 50  2  0  0  0  0
M  END
> <PUBCHEM_COMPOUND_CID>
44587506

> <PUBCHEM_CONFORMER_RMSD>
1.6

> <PUBCHEM_CONFORMER_DIVERSEORDER>
1
247
148
153
52
2
33
43
137
177
194
156
151
56
259
261
17
164
102
144
62
255
245
172
5
35
229
189
217
163
154
184
143
91
252
203
63
80
130
100
77
204
74
239
270
126
150
273
183
233
97
272
6
185
87
117
44
82
191
169
248
23
225
8
69
207
49
21
237
242
228
196
241
113
18
206
119
141
67
178
30
170
4
101
257
199
260
84
134
85
7
275
135
224
13
149
235
158
103
212
267
193
65
167
220
123
41
128
188
10
263
122
114
195
133
3
124
174
269
25
161
76
29
168
202
244
99
115
226
246
37
173
179
159
12
109
258
98
71
132
146
118
192
61
197
11
240
271
60
182
171
129
198
176
116
31
253
32
47
39
142
254
93
9
121
200
221
14
236
127
79
73
72
165
186
219
274
78
95
213
38
175
227
230
81
88
155
166
262
218
222
266
75
42
70
277
89
160
108
26
157
265
66
83
136
190
256
232
201
15
125
16
59
223
211
112
152
214
187
138
86
40
110
106
251
58
243
139
250
268
92
94
264
53
180
50
120
51
145
209
208
28
181
205
216
34
231
68
55
249
131
48
276
57
210
46
105
96
162
27
215
45
238
24
140
22
234
36
104
90
111
147
64
54
107
20
19

> <PUBCHEM_MMFF94_PARTIAL_CHARGES>
57
1 -0.11
10 -0.68
11 -0.36
12 -0.36
13 -0.57
14 -0.57
15 -0.36
16 -0.51
17 -0.51
18 -0.73
19 -0.73
2 -0.11
20 0.42
21 0.42
22 0.42
23 0.42
24 0.06
25 0.06
26 -0.29
27 -0.29
28 0.39
29 0.39
3 -0.11
30 -0.03
31 -0.03
32 0.11
33 0.11
34 0.08
35 0.08
36 0.63
37 0.63
38 0.3
39 0.3
4 -0.11
40 0.14
42 -0.14
43 0.28
44 0.28
45 0.28
46 -0.15
47 -0.15
48 0.08
49 0.11
5 -0.11
50 0.11
57 0.15
58 0.15
59 0.4
6 -0.11
60 0.4
61 0.37
62 0.37
7 -0.22
79 0.15
8 -0.22
80 0.15
9 -0.68

> <PUBCHEM_EFFECTIVE_ROTOR_COUNT>
15.2

> <PUBCHEM_PHARMACOPHORE_FEATURES>
24
1 1 hydrophobe
1 10 acceptor
1 10 donor
1 11 acceptor
1 12 acceptor
1 13 acceptor
1 14 acceptor
1 15 acceptor
1 16 acceptor
1 17 acceptor
1 18 donor
1 19 donor
1 2 hydrophobe
1 3 hydrophobe
1 4 hydrophobe
1 5 hydrophobe
1 6 hydrophobe
1 9 acceptor
1 9 donor
5 7 16 20 24 28 rings
5 8 17 21 25 29 rings
6 20 22 26 30 32 34 rings
6 21 23 27 31 33 35 rings
6 42 46 47 48 49 50 rings

> <PUBCHEM_HEAVY_ATOM_COUNT>
50

> <PUBCHEM_ATOM_DEF_STEREO_COUNT>
4

> <PUBCHEM_ATOM_UDEF_STEREO_COUNT>
0

> <PUBCHEM_BOND_DEF_STEREO_COUNT>
0

> <PUBCHEM_BOND_UDEF_STEREO_COUNT>
0

> <PUBCHEM_ISOTOPIC_ATOM_COUNT>
0

> <PUBCHEM_COMPONENT_COUNT>
1

> <PUBCHEM_CACTVS_TAUTO_COUNT>
4

> <PUBCHEM_CONFORMER_ID>
02A859F200000001

> <PUBCHEM_MMFF94_ENERGY>
125.7863

> <PUBCHEM_FEATURE_SELFOVERLAP>
121.832

> <PUBCHEM_SHAPE_FINGERPRINT>
10556698 54 18122874716888808895
10581848 31 18189046504734451370
11285246 1 18340768234204520393
117089 54 18131349760393672565
12202916 173 17691663998636970360
13383661 66 17907292514263610115
13636023 20 17703497857687310714
15975801 100 17751070323837886980
17627616 140 18190153764540764105
19311894 1 18128535959724309812
20764821 26 18409727374141475408
21133410 62 18042409028763690749
21772528 278 17751671804064304169
24941158 1 16414051183490680153
437795 70 18343028825647156677
437795 96 17113238496316551777

> <PUBCHEM_SHAPE_MULTIPOLES>
991.88
13.38
7.65
4.25
7.11
0.63
1.65
1.4
-15.61
-2.82
5.1
0.7
-1.88
-3.16

> <PUBCHEM_SHAPE_SELFOVERLAP>
2036.416

> <PUBCHEM_SHAPE_VOLUME>
588.4

> <PUBCHEM_COORDINATE_TYPE>
2
5
10

$$$$
