102023618
  -OEChem-04052509153D

 85 89  0     1  0  0  0  0  0999 V2000
   -6.9112   -1.7282    0.3729 O   0  0  0  0  0  0  0  0  0  0  0  0
    3.1825   -2.5679   -0.5372 O   0  0  0  0  0  0  0  0  0  0  0  0
    5.0984   -3.0819    1.7898 O   0  0  0  0  0  0  0  0  0  0  0  0
    0.6724    1.2018    0.4807 C   0  0  1  0  0  0  0  0  0  0  0  0
   -0.8303    1.1856   -0.1521 C   0  0  1  0  0  0  0  0  0  0  0  0
    1.6190    0.3107   -0.4306 C   0  0  1  0  0  0  0  0  0  0  0  0
   -1.3259   -0.3123   -0.2375 C   0  0  1  0  0  0  0  0  0  0  0  0
    3.0870    0.3997    0.0455 C   0  0  2  0  0  0  0  0  0  0  0  0
   -2.8662   -0.5588   -0.5652 C   0  0  2  0  0  0  0  0  0  0  0  0
    3.5919    1.8625   -0.0323 C   0  0  1  0  0  0  0  0  0  0  0  0
   -3.7272    0.3405    0.3876 C   0  0  1  0  0  0  0  0  0  0  0  0
    1.2559    2.6564    0.5933 C   0  0  0  0  0  0  0  0  0  0  0  0
    1.0894   -1.1205   -0.5700 C   0  0  0  0  0  0  0  0  0  0  0  0
   -0.3554   -1.1740   -1.0745 C   0  0  0  0  0  0  0  0  0  0  0  0
   -1.8261    1.9907    0.7276 C   0  0  0  0  0  0  0  0  0  0  0  0
    4.2022   -0.4021   -0.6568 C   0  0  1  0  0  0  0  0  0  0  0  0
    2.7613    2.7303    0.9219 C   0  0  0  0  0  0  0  0  0  0  0  0
   -3.2964    1.8191    0.3369 C   0  0  0  0  0  0  0  0  0  0  0  0
    5.0514    1.6734    0.3944 C   0  0  0  0  0  0  0  0  0  0  0  0
   -5.2912    0.1262    0.3047 C   0  0  0  0  0  0  0  0  0  0  0  0
    0.6670    0.6488    1.9481 C   0  0  0  0  0  0  0  0  0  0  0  0
   -3.1950   -2.0618   -0.2467 C   0  0  0  0  0  0  0  0  0  0  0  0
   -0.8187    1.8637   -1.5549 C   0  0  0  0  0  0  0  0  0  0  0  0
    5.4926    0.4014   -0.3433 C   0  0  0  0  0  0  0  0  0  0  0  0
   -3.1931   -0.3219   -2.0590 C   0  0  0  0  0  0  0  0  0  0  0  0
    3.5751    2.4875   -1.4514 C   0  0  0  0  0  0  0  0  0  0  0  0
   -5.6321   -1.3337   -0.1236 C   0  0  1  0  0  0  0  0  0  0  0  0
    4.3558   -1.8395   -0.1633 C   0  0  1  0  0  0  0  0  0  0  0  0
   -4.5804   -2.3271    0.3478 C   0  0  0  0  0  0  0  0  0  0  0  0
   -5.9949    1.0896   -0.6770 C   0  0  0  0  0  0  0  0  0  0  0  0
   -5.8883    0.4259    1.7087 C   0  0  0  0  0  0  0  0  0  0  0  0
    4.4858   -1.8693    1.3653 C   0  0  0  0  0  0  0  0  0  0  0  0
    5.5447   -2.5148   -0.8498 C   0  0  0  0  0  0  0  0  0  0  0  0
    1.6044    0.7220   -1.4444 H   0  0  0  0  0  0  0  0  0  0  0  0
   -1.2401   -0.7001    0.7853 H   0  0  0  0  0  0  0  0  0  0  0  0
    3.0984    0.1185    1.1002 H   0  0  0  0  0  0  0  0  0  0  0  0
   -3.4497    0.0048    1.4010 H   0  0  0  0  0  0  0  0  0  0  0  0
    1.1051    3.2105   -0.3344 H   0  0  0  0  0  0  0  0  0  0  0  0
    0.7102    3.2191    1.3611 H   0  0  0  0  0  0  0  0  0  0  0  0
    1.1803   -1.6880    0.3601 H   0  0  0  0  0  0  0  0  0  0  0  0
    1.6229   -1.5963   -1.3927 H   0  0  0  0  0  0  0  0  0  0  0  0
   -0.3679   -0.8571   -2.1225 H   0  0  0  0  0  0  0  0  0  0  0  0
   -0.6702   -2.2233   -1.0749 H   0  0  0  0  0  0  0  0  0  0  0  0
   -1.5797    3.0590    0.6992 H   0  0  0  0  0  0  0  0  0  0  0  0
   -1.7507    1.6883    1.7756 H   0  0  0  0  0  0  0  0  0  0  0  0
    4.0153   -0.4025   -1.7388 H   0  0  0  0  0  0  0  0  0  0  0  0
    3.0904    3.7756    0.8678 H   0  0  0  0  0  0  0  0  0  0  0  0
    2.9263    2.4222    1.9609 H   0  0  0  0  0  0  0  0  0  0  0  0
   -3.8917    2.4074    1.0444 H   0  0  0  0  0  0  0  0  0  0  0  0
   -3.4835    2.2566   -0.6477 H   0  0  0  0  0  0  0  0  0  0  0  0
    5.1225    1.5104    1.4771 H   0  0  0  0  0  0  0  0  0  0  0  0
    5.6899    2.5283    0.1489 H   0  0  0  0  0  0  0  0  0  0  0  0
    0.0426    1.2552    2.6098 H   0  0  0  0  0  0  0  0  0  0  0  0
    1.6561    0.6653    2.4119 H   0  0  0  0  0  0  0  0  0  0  0  0
    0.3235   -0.3844    2.0212 H   0  0  0  0  0  0  0  0  0  0  0  0
   -2.4689   -2.4780    0.4633 H   0  0  0  0  0  0  0  0  0  0  0  0
   -3.0811   -2.6635   -1.1583 H   0  0  0  0  0  0  0  0  0  0  0  0
   -0.1803    1.3544   -2.2787 H   0  0  0  0  0  0  0  0  0  0  0  0
   -0.4903    2.9049   -1.5026 H   0  0  0  0  0  0  0  0  0  0  0  0
   -1.8057    1.9217   -2.0065 H   0  0  0  0  0  0  0  0  0  0  0  0
    5.9761    0.6729   -1.2903 H   0  0  0  0  0  0  0  0  0  0  0  0
    6.2557   -0.1163    0.2432 H   0  0  0  0  0  0  0  0  0  0  0  0
   -3.3624    0.7272   -2.2987 H   0  0  0  0  0  0  0  0  0  0  0  0
   -4.0989   -0.8453   -2.3741 H   0  0  0  0  0  0  0  0  0  0  0  0
   -2.4061   -0.6937   -2.7194 H   0  0  0  0  0  0  0  0  0  0  0  0
    2.5662    2.6131   -1.8521 H   0  0  0  0  0  0  0  0  0  0  0  0
    4.1315    1.8936   -2.1826 H   0  0  0  0  0  0  0  0  0  0  0  0
    4.0350    3.4829   -1.4312 H   0  0  0  0  0  0  0  0  0  0  0  0
   -5.7147   -1.3990   -1.2126 H   0  0  0  0  0  0  0  0  0  0  0  0
   -4.8888   -3.3527    0.1091 H   0  0  0  0  0  0  0  0  0  0  0  0
   -4.5216   -2.3017    1.4439 H   0  0  0  0  0  0  0  0  0  0  0  0
   -5.6003    0.9997   -1.6923 H   0  0  0  0  0  0  0  0  0  0  0  0
   -5.8926    2.1353   -0.3683 H   0  0  0  0  0  0  0  0  0  0  0  0
   -7.0696    0.8782   -0.7288 H   0  0  0  0  0  0  0  0  0  0  0  0
   -5.6294    1.4329    2.0515 H   0  0  0  0  0  0  0  0  0  0  0  0
   -5.5193   -0.2835    2.4575 H   0  0  0  0  0  0  0  0  0  0  0  0
   -6.9827    0.3675    1.7062 H   0  0  0  0  0  0  0  0  0  0  0  0
    5.0976   -1.0620    1.7728 H   0  0  0  0  0  0  0  0  0  0  0  0
    3.5012   -1.8400    1.8447 H   0  0  0  0  0  0  0  0  0  0  0  0
    5.5333   -3.5991   -0.6852 H   0  0  0  0  0  0  0  0  0  0  0  0
    6.5134   -2.1369   -0.5114 H   0  0  0  0  0  0  0  0  0  0  0  0
    5.4870   -2.3845   -1.9372 H   0  0  0  0  0  0  0  0  0  0  0  0
   -7.0854   -2.6308    0.0559 H   0  0  0  0  0  0  0  0  0  0  0  0
    3.2588   -3.4655   -0.1705 H   0  0  0  0  0  0  0  0  0  0  0  0
    5.1391   -3.0580    2.7611 H   0  0  0  0  0  0  0  0  0  0  0  0
  1 27  1  0  0  0  0
  1 83  1  0  0  0  0
  2 28  1  0  0  0  0
  2 84  1  0  0  0  0
  3 32  1  0  0  0  0
  3 85  1  0  0  0  0
  4  5  1  0  0  0  0
  4  6  1  0  0  0  0
  4 12  1  0  0  0  0
  4 21  1  0  0  0  0
  5  7  1  0  0  0  0
  5 15  1  0  0  0  0
  5 23  1  0  0  0  0
  6  8  1  0  0  0  0
  6 13  1  0  0  0  0
  6 34  1  0  0  0  0
  7  9  1  0  0  0  0
  7 14  1  0  0  0  0
  7 35  1  0  0  0  0
  8 10  1  0  0  0  0
  8 16  1  0  0  0  0
  8 36  1  0  0  0  0
  9 11  1  0  0  0  0
  9 22  1  0  0  0  0
  9 25  1  0  0  0  0
 10 17  1  0  0  0  0
 10 19  1  0  0  0  0
 10 26  1  0  0  0  0
 11 18  1  0  0  0  0
 11 20  1  0  0  0  0
 11 37  1  0  0  0  0
 12 17  1  0  0  0  0
 12 38  1  0  0  0  0
 12 39  1  0  0  0  0
 13 14  1  0  0  0  0
 13 40  1  0  0  0  0
 13 41  1  0  0  0  0
 14 42  1  0  0  0  0
 14 43  1  0  0  0  0
 15 18  1  0  0  0  0
 15 44  1  0  0  0  0
 15 45  1  0  0  0  0
 16 24  1  0  0  0  0
 16 28  1  0  0  0  0
 16 46  1  0  0  0  0
 17 47  1  0  0  0  0
 17 48  1  0  0  0  0
 18 49  1  0  0  0  0
 18 50  1  0  0  0  0
 19 24  1  0  0  0  0
 19 51  1  0  0  0  0
 19 52  1  0  0  0  0
 20 27  1  0  0  0  0
 20 30  1  0  0  0  0
 20 31  1  0  0  0  0
 21 53  1  0  0  0  0
 21 54  1  0  0  0  0
 21 55  1  0  0  0  0
 22 29  1  0  0  0  0
 22 56  1  0  0  0  0
 22 57  1  0  0  0  0
 23 58  1  0  0  0  0
 23 59  1  0  0  0  0
 23 60  1  0  0  0  0
 24 61  1  0  0  0  0
 24 62  1  0  0  0  0
 25 63  1  0  0  0  0
 25 64  1  0  0  0  0
 25 65  1  0  0  0  0
 26 66  1  0  0  0  0
 26 67  1  0  0  0  0
 26 68  1  0  0  0  0
 27 29  1  0  0  0  0
 27 69  1  0  0  0  0
 28 32  1  0  0  0  0
 28 33  1  0  0  0  0
 29 70  1  0  0  0  0
 29 71  1  0  0  0  0
 30 72  1  0  0  0  0
 30 73  1  0  0  0  0
 30 74  1  0  0  0  0
 31 75  1  0  0  0  0
 31 76  1  0  0  0  0
 31 77  1  0  0  0  0
 32 78  1  0  0  0  0
 32 79  1  0  0  0  0
 33 80  1  0  0  0  0
 33 81  1  0  0  0  0
 33 82  1  0  0  0  0
M  END
> <PUBCHEM_COMPOUND_CID>
102023618

> <PUBCHEM_CONFORMER_RMSD>
0.8

> <PUBCHEM_CONFORMER_DIVERSEORDER>
1
2
3

> <PUBCHEM_MMFF94_PARTIAL_CHARGES>
9
1 -0.68
2 -0.68
27 0.28
28 0.28
3 -0.68
32 0.28
83 0.4
84 0.4
85 0.4

> <PUBCHEM_EFFECTIVE_ROTOR_COUNT>
4.6

> <PUBCHEM_PHARMACOPHORE_FEATURES>
12
1 1 acceptor
1 1 donor
1 2 acceptor
1 2 donor
1 3 acceptor
1 3 donor
3 20 30 31 hydrophobe
5 8 10 16 19 24 rings
6 4 5 6 7 13 14 rings
6 4 6 8 10 12 17 rings
6 5 7 9 11 15 18 rings
6 9 11 20 22 27 29 rings

> <PUBCHEM_HEAVY_ATOM_COUNT>
33

> <PUBCHEM_ATOM_DEF_STEREO_COUNT>
10

> <PUBCHEM_ATOM_UDEF_STEREO_COUNT>
1

> <PUBCHEM_BOND_DEF_STEREO_COUNT>
0

> <PUBCHEM_BOND_UDEF_STEREO_COUNT>
0

> <PUBCHEM_ISOTOPIC_ATOM_COUNT>
0

> <PUBCHEM_COMPONENT_COUNT>
1

> <PUBCHEM_CACTVS_TAUTO_COUNT>
1

> <PUBCHEM_CONFORMER_ID>
0614C1C200000001

> <PUBCHEM_MMFF94_ENERGY>
182.9575

> <PUBCHEM_FEATURE_SELFOVERLAP>
60.993

> <PUBCHEM_SHAPE_FINGERPRINT>
11135926 11 18268697472350679596
11456790 92 18131083623852490939
11578080 2 14058147423065848716
117089 54 17912941487096135502
11756154 67 17982179911940229702
11963148 33 18192425500987138715
12107183 9 18127703621286083169
12166972 35 18260555514972736780
12236239 1 17917998286424878849
12422481 6 18060424569064196679
12616971 3 18059849563000588103
12633257 1 18130515158417320513
12788726 201 17274557476270122272
13140716 1 18271527477429982696
13533116 47 18412265072700245296
13782708 43 17894347765900706043
13785724 45 17913784820877298390
14341114 176 18412268332733520733
14347332 77 18335135354388380049
14790565 3 18200882875945170549
14955137 171 18059858303628358630
15001296 14 18335982059861854282
15183329 4 18342741810447308321
15196674 1 18342177786725682693
15238133 3 16917076516590470937
15250474 111 18128525157929683047
15799311 1 18265349445941696135
15927050 60 17840865502007043734
16112460 7 18342472425914390827
17349148 13 17703792487774348080
17492 89 18268994189944718934
17844677 252 18333734598197012749
17857418 61 18412543201955448241
1813 80 17530683229603175805
1979834 28 17418095386714089966
19841028 212 18336542824590045323
19958102 18 17967243218080093351
20028762 73 18201719535348208719
21267235 1 18272095976881758998
21279426 13 18410291381094175191
21315759 148 17677342735215097177
21421861 104 18409720773567726738
21703447 108 16625154220948045023
23522609 53 18055105209325189089
23559900 14 18341326769073843337
23569914 152 17032143582571672247
23569943 247 17896033244243538971
3004659 81 18410577262718114622
338550 245 18410858802003134572
345986 75 17846779598500288664
34797466 226 16588026856982847613
350125 39 18413390929852886300
3633792 109 18340197519772842589
3680242 22 18341901770309579075
376196 1 16266569420377771208
392239 28 18411143502680067795
397830 11 12966554435384111607
4073 2 18117281556271104787
4093350 32 16343709863613156068
4144715 1 18411149043177394867
460360 51 18199489708623508885
46194498 28 17894630396371273932
463206 1 18341047527664534918
465052 167 18272656740132460662
5104073 3 18272093816244190683
513202 73 18113621136787814945
513532 50 12251900370480343962
6086070 43 16988550339080019833

> <PUBCHEM_SHAPE_MULTIPOLES>
661.52
15.03
3.23
1.43
8.51
0.55
0.09
6.41
1.74
-3.28
0.36
-0.07
-0.02
-0.6

> <PUBCHEM_SHAPE_SELFOVERLAP>
1396.54

> <PUBCHEM_SHAPE_VOLUME>
369.9

> <PUBCHEM_COORDINATE_TYPE>
2
5
10

$$$$
