101426128
  -OEChem-04052509263D

 88 93  0     1  0  0  0  0  0999 V2000
    2.6267    1.1079   -1.6930 O   0  0  0  0  0  0  0  0  0  0  0  0
    4.2873    0.7604    2.2730 O   0  0  0  0  0  0  0  0  0  0  0  0
   -6.4235   -0.5961    0.1452 O   0  0  0  0  0  0  0  0  0  0  0  0
   -6.4623   -2.8196    0.7707 O   0  0  0  0  0  0  0  0  0  0  0  0
    1.5527    0.6217    0.4601 C   0  0  2  0  0  0  0  0  0  0  0  0
    2.3128    0.0070   -0.7798 C   0  0  2  0  0  0  0  0  0  0  0  0
    0.0941    1.2142   -0.0158 C   0  0  1  0  0  0  0  0  0  0  0  0
    3.7323   -0.5278   -0.5258 C   0  0  1  0  0  0  0  0  0  0  0  0
    4.4625    0.7700   -0.2117 C   0  0  2  0  0  0  0  0  0  0  0  0
   -0.7212    0.0086   -0.6291 C   0  0  1  0  0  0  0  0  0  0  0  0
   -2.2796    0.2506   -0.8575 C   0  0  2  0  0  0  0  0  0  0  0  0
    2.4325    1.7416    1.1047 C   0  0  0  0  0  0  0  0  0  0  0  0
    1.4623   -1.0284   -1.5352 C   0  0  0  0  0  0  0  0  0  0  0  0
    3.9513    1.4690    1.0879 C   0  0  1  0  0  0  0  0  0  0  0  0
    0.0257   -0.5960   -1.8443 C   0  0  0  0  0  0  0  0  0  0  0  0
   -2.8725    0.7728    0.5066 C   0  0  1  0  0  0  0  0  0  0  0  0
   -0.6727    1.8489    1.1858 C   0  0  0  0  0  0  0  0  0  0  0  0
    3.9695    1.5822   -1.4192 C   0  0  0  0  0  0  0  0  0  0  0  0
    4.0773   -1.6880    0.3977 C   0  0  0  0  0  0  0  0  0  0  0  0
    5.9812    0.5325   -0.2081 C   0  0  0  0  0  0  0  0  0  0  0  0
   -2.1721    2.0685    0.9594 C   0  0  0  0  0  0  0  0  0  0  0  0
    1.3516   -0.4877    1.5474 C   0  0  0  0  0  0  0  0  0  0  0  0
    0.2298    2.3709   -1.0591 C   0  0  0  0  0  0  0  0  0  0  0  0
    5.6074   -1.9760    0.3921 C   0  0  0  0  0  0  0  0  0  0  0  0
   -4.4432    0.8083    0.6130 C   0  0  0  0  0  0  0  0  0  0  0  0
   -2.9544   -1.1193   -1.1800 C   0  0  0  0  0  0  0  0  0  0  0  0
    6.4218   -0.6772    0.6348 C   0  0  0  0  0  0  0  0  0  0  0  0
   -2.5502    1.1918   -2.0559 C   0  0  0  0  0  0  0  0  0  0  0  0
   -4.9979   -0.5918    0.2213 C   0  0  2  0  0  0  0  0  0  0  0  0
   -4.4795   -1.1033   -1.1172 C   0  0  0  0  0  0  0  0  0  0  0  0
    5.9931   -2.5584   -0.9824 C   0  0  0  0  0  0  0  0  0  0  0  0
    5.9734   -3.0285    1.4599 C   0  0  0  0  0  0  0  0  0  0  0  0
   -5.0093    1.8349   -0.4101 C   0  0  0  0  0  0  0  0  0  0  0  0
   -4.9682    1.2580    1.9915 C   0  0  0  0  0  0  0  0  0  0  0  0
   -7.0261   -1.7829    0.4474 C   0  0  0  0  0  0  0  0  0  0  0  0
   -8.5130   -1.6390    0.3257 C   0  0  0  0  0  0  0  0  0  0  0  0
    4.0742   -0.8610   -1.5187 H   0  0  0  0  0  0  0  0  0  0  0  0
   -0.7028   -0.7838    0.1317 H   0  0  0  0  0  0  0  0  0  0  0  0
    2.0916    1.9330    2.1306 H   0  0  0  0  0  0  0  0  0  0  0  0
    2.2952    2.6859    0.5756 H   0  0  0  0  0  0  0  0  0  0  0  0
    1.4224   -1.9677   -0.9723 H   0  0  0  0  0  0  0  0  0  0  0  0
    1.9424   -1.2694   -2.4930 H   0  0  0  0  0  0  0  0  0  0  0  0
    4.4634    2.4367    1.1728 H   0  0  0  0  0  0  0  0  0  0  0  0
    0.0505    0.0972   -2.6889 H   0  0  0  0  0  0  0  0  0  0  0  0
   -0.5013   -1.4836   -2.2095 H   0  0  0  0  0  0  0  0  0  0  0  0
   -2.5833    0.0206    1.2600 H   0  0  0  0  0  0  0  0  0  0  0  0
   -0.2172    2.8119    1.4513 H   0  0  0  0  0  0  0  0  0  0  0  0
   -0.5907    1.2422    2.0884 H   0  0  0  0  0  0  0  0  0  0  0  0
    4.5624    1.3970   -2.3217 H   0  0  0  0  0  0  0  0  0  0  0  0
    3.9452    2.6629   -1.2478 H   0  0  0  0  0  0  0  0  0  0  0  0
    3.7842   -1.4928    1.4278 H   0  0  0  0  0  0  0  0  0  0  0  0
    3.5270   -2.5855    0.0903 H   0  0  0  0  0  0  0  0  0  0  0  0
    6.5030    1.4306    0.1446 H   0  0  0  0  0  0  0  0  0  0  0  0
    6.3319    0.3739   -1.2358 H   0  0  0  0  0  0  0  0  0  0  0  0
   -2.5841    2.4104    1.9146 H   0  0  0  0  0  0  0  0  0  0  0  0
   -2.3368    2.8900    0.2584 H   0  0  0  0  0  0  0  0  0  0  0  0
    1.2189   -1.4836    1.1177 H   0  0  0  0  0  0  0  0  0  0  0  0
    0.4878   -0.3254    2.1908 H   0  0  0  0  0  0  0  0  0  0  0  0
    2.1915   -0.5444    2.2412 H   0  0  0  0  0  0  0  0  0  0  0  0
    0.5431    2.0405   -2.0494 H   0  0  0  0  0  0  0  0  0  0  0  0
    0.9240    3.1506   -0.7404 H   0  0  0  0  0  0  0  0  0  0  0  0
   -0.7127    2.8988   -1.2119 H   0  0  0  0  0  0  0  0  0  0  0  0
   -2.6633   -1.4648   -2.1790 H   0  0  0  0  0  0  0  0  0  0  0  0
   -2.5958   -1.8797   -0.4735 H   0  0  0  0  0  0  0  0  0  0  0  0
    7.4873   -0.8645    0.4473 H   0  0  0  0  0  0  0  0  0  0  0  0
    6.3595   -0.4075    1.6954 H   0  0  0  0  0  0  0  0  0  0  0  0
   -3.4387    0.9142   -2.6279 H   0  0  0  0  0  0  0  0  0  0  0  0
   -1.7463    1.1567   -2.7946 H   0  0  0  0  0  0  0  0  0  0  0  0
   -2.6635    2.2382   -1.7702 H   0  0  0  0  0  0  0  0  0  0  0  0
   -4.6692   -1.2833    1.0106 H   0  0  0  0  0  0  0  0  0  0  0  0
   -4.9115   -0.5461   -1.9544 H   0  0  0  0  0  0  0  0  0  0  0  0
   -4.8351   -2.1297   -1.2775 H   0  0  0  0  0  0  0  0  0  0  0  0
    4.0321    1.3100    3.0333 H   0  0  0  0  0  0  0  0  0  0  0  0
    7.0394   -2.8875   -0.9825 H   0  0  0  0  0  0  0  0  0  0  0  0
    5.3795   -3.4331   -1.2269 H   0  0  0  0  0  0  0  0  0  0  0  0
    5.8961   -1.8436   -1.8036 H   0  0  0  0  0  0  0  0  0  0  0  0
    5.4358   -3.9675    1.2876 H   0  0  0  0  0  0  0  0  0  0  0  0
    5.7116   -2.6740    2.4630 H   0  0  0  0  0  0  0  0  0  0  0  0
    7.0470   -3.2466    1.4524 H   0  0  0  0  0  0  0  0  0  0  0  0
   -6.0711    2.0238   -0.2015 H   0  0  0  0  0  0  0  0  0  0  0  0
   -4.9859    1.5209   -1.4497 H   0  0  0  0  0  0  0  0  0  0  0  0
   -4.5140    2.8072   -0.3273 H   0  0  0  0  0  0  0  0  0  0  0  0
   -6.0563    1.1500    2.0628 H   0  0  0  0  0  0  0  0  0  0  0  0
   -4.7387    2.3081    2.1985 H   0  0  0  0  0  0  0  0  0  0  0  0
   -4.5259    0.6492    2.7874 H   0  0  0  0  0  0  0  0  0  0  0  0
   -8.8699   -0.8788    1.0251 H   0  0  0  0  0  0  0  0  0  0  0  0
   -8.9910   -2.5913    0.5723 H   0  0  0  0  0  0  0  0  0  0  0  0
   -8.7763   -1.3724   -0.7009 H   0  0  0  0  0  0  0  0  0  0  0  0
  1  6  1  0  0  0  0
  1 18  1  0  0  0  0
  2 14  1  0  0  0  0
  2 73  1  0  0  0  0
  3 29  1  0  0  0  0
  3 35  1  0  0  0  0
  4 35  2  0  0  0  0
  5  6  1  0  0  0  0
  5  7  1  0  0  0  0
  5 12  1  0  0  0  0
  5 22  1  0  0  0  0
  6  8  1  0  0  0  0
  6 13  1  0  0  0  0
  7 10  1  0  0  0  0
  7 17  1  0  0  0  0
  7 23  1  0  0  0  0
  8  9  1  0  0  0  0
  8 19  1  0  0  0  0
  8 37  1  0  0  0  0
  9 14  1  0  0  0  0
  9 18  1  0  0  0  0
  9 20  1  0  0  0  0
 10 11  1  0  0  0  0
 10 15  1  0  0  0  0
 10 38  1  0  0  0  0
 11 16  1  0  0  0  0
 11 26  1  0  0  0  0
 11 28  1  0  0  0  0
 12 14  1  0  0  0  0
 12 39  1  0  0  0  0
 12 40  1  0  0  0  0
 13 15  1  0  0  0  0
 13 41  1  0  0  0  0
 13 42  1  0  0  0  0
 14 43  1  0  0  0  0
 15 44  1  0  0  0  0
 15 45  1  0  0  0  0
 16 21  1  0  0  0  0
 16 25  1  0  0  0  0
 16 46  1  0  0  0  0
 17 21  1  0  0  0  0
 17 47  1  0  0  0  0
 17 48  1  0  0  0  0
 18 49  1  0  0  0  0
 18 50  1  0  0  0  0
 19 24  1  0  0  0  0
 19 51  1  0  0  0  0
 19 52  1  0  0  0  0
 20 27  1  0  0  0  0
 20 53  1  0  0  0  0
 20 54  1  0  0  0  0
 21 55  1  0  0  0  0
 21 56  1  0  0  0  0
 22 57  1  0  0  0  0
 22 58  1  0  0  0  0
 22 59  1  0  0  0  0
 23 60  1  0  0  0  0
 23 61  1  0  0  0  0
 23 62  1  0  0  0  0
 24 27  1  0  0  0  0
 24 31  1  0  0  0  0
 24 32  1  0  0  0  0
 25 29  1  0  0  0  0
 25 33  1  0  0  0  0
 25 34  1  0  0  0  0
 26 30  1  0  0  0  0
 26 63  1  0  0  0  0
 26 64  1  0  0  0  0
 27 65  1  0  0  0  0
 27 66  1  0  0  0  0
 28 67  1  0  0  0  0
 28 68  1  0  0  0  0
 28 69  1  0  0  0  0
 29 30  1  0  0  0  0
 29 70  1  0  0  0  0
 30 71  1  0  0  0  0
 30 72  1  0  0  0  0
 31 74  1  0  0  0  0
 31 75  1  0  0  0  0
 31 76  1  0  0  0  0
 32 77  1  0  0  0  0
 32 78  1  0  0  0  0
 32 79  1  0  0  0  0
 33 80  1  0  0  0  0
 33 81  1  0  0  0  0
 33 82  1  0  0  0  0
 34 83  1  0  0  0  0
 34 84  1  0  0  0  0
 34 85  1  0  0  0  0
 35 36  1  0  0  0  0
 36 86  1  0  0  0  0
 36 87  1  0  0  0  0
 36 88  1  0  0  0  0
M  END
> <PUBCHEM_COMPOUND_CID>
101426128

> <PUBCHEM_CONFORMER_RMSD>
0.8

> <PUBCHEM_CONFORMER_DIVERSEORDER>
1

> <PUBCHEM_MMFF94_PARTIAL_CHARGES>
11
1 -0.56
14 0.28
18 0.28
2 -0.68
29 0.28
3 -0.43
35 0.66
36 0.06
4 -0.57
6 0.28
73 0.4

> <PUBCHEM_EFFECTIVE_ROTOR_COUNT>
5.2

> <PUBCHEM_PHARMACOPHORE_FEATURES>
11
1 1 acceptor
1 2 acceptor
1 2 donor
1 4 acceptor
3 24 31 32 hydrophobe
3 25 33 34 hydrophobe
6 11 16 25 26 29 30 rings
6 5 6 7 10 13 15 rings
6 7 10 11 16 17 21 rings
6 8 9 19 20 24 27 rings
8 1 5 6 8 9 12 14 18 rings

> <PUBCHEM_HEAVY_ATOM_COUNT>
36

> <PUBCHEM_ATOM_DEF_STEREO_COUNT>
10

> <PUBCHEM_ATOM_UDEF_STEREO_COUNT>
0

> <PUBCHEM_BOND_DEF_STEREO_COUNT>
0

> <PUBCHEM_BOND_UDEF_STEREO_COUNT>
0

> <PUBCHEM_ISOTOPIC_ATOM_COUNT>
0

> <PUBCHEM_COMPONENT_COUNT>
1

> <PUBCHEM_CACTVS_TAUTO_COUNT>
2

> <PUBCHEM_CONFORMER_ID>
060BA3D000000001

> <PUBCHEM_MMFF94_ENERGY>
193.3653

> <PUBCHEM_FEATURE_SELFOVERLAP>
55.893

> <PUBCHEM_SHAPE_FINGERPRINT>
10 15 17560802164644563897
10319926 262 17703509883321270568
11135609 99 18410292523556287638
11646440 116 15985107405244606018
117089 54 17911525299029523734
12035758 1 16558744607239887258
12107698 1 18272653480674165587
12166972 35 18187087264633087244
12236239 1 18409169887560417100
12422481 6 17774441568909913748
12633257 1 17060328635341210748
12788726 201 16917076525407473448
13224815 77 18060136535440738636
13533116 47 18409728469932713314
13782708 43 18113334184978722234
13811026 1 18201998789863113735
13911987 19 12540698102609888495
14294032 229 16589415395026578157
14931854 50 13406786714712961823
15064981 194 12324253746094225063
15183329 4 17346597473768638685
15352257 5 18334577944879720643
15475509 35 18337100195090454706
15510800 12 17895488024300042203
15788980 27 18186801353050027140
17349148 13 18261115149543701424
1813 80 18187081771375495677
1979834 28 16558755585714301598
19841028 212 18260264144360240995
19958102 18 17313109652448432483
20028762 73 18334858282001704522
20105231 36 17918000464991852182
2026 5 17386558034802738194
21057603 130 18187646844213613274
21130935 74 18341051826668575946
21267235 1 18131638876654915060
21344244 181 18040438797467055154
21424621 283 11959737066488851215
21781051 124 18059871566371545678
21792934 111 17989205920195393913
22122407 14 12031511042325048939
23522609 53 18121814731128483228
23559900 14 13840560613195571783
23569914 152 15943115797681388031
23569943 247 17752478759805807202
23576562 1 10954043506289671963
2838139 119 10447662257791047211
3178227 256 17703792534881812394
3383291 50 18343301461861636943
3411729 13 16987420097188101512
34797466 226 17095522945583497836
350125 39 18060134315533399120
3680242 22 17775010042386378560
392239 28 17060335240879384659
439807 62 18409450297838789339
44880568 143 16226043392782055207
465052 167 18272653446019047590
504579 68 14273455877197002867
5080951 261 15841251715726287405
5104073 3 17989204845546274001
513202 73 18115307757000805269
5385378 56 14764360313806572693
54039377 194 18410295775052239798
59755656 215 15647050456198322122
6081469 158 18261107492329033119
6086070 43 17559650915957486349
70251023 43 17894910707438129692

> <PUBCHEM_SHAPE_MULTIPOLES>
717.39
18.62
2.67
1.76
15.32
0.94
-0.05
13.4
4.83
-0.4
0.47
-0.43
-0.27
-0.39

> <PUBCHEM_SHAPE_SELFOVERLAP>
1534.743

> <PUBCHEM_SHAPE_VOLUME>
393.5

> <PUBCHEM_COORDINATE_TYPE>
2
5
10

$$$$
