2250212
  -OEChem-04052509193D

 45 46  0     0  0  0  0  0  0999 V2000
   -5.2107   -1.9090    0.2749 O   0  0  0  0  0  0  0  0  0  0  0  0
   -6.4719    0.4214   -0.5648 O   0  0  0  0  0  0  0  0  0  0  0  0
    7.5798    0.0992    0.4003 O   0  0  0  0  0  0  0  0  0  0  0  0
   -0.2050    0.2914   -0.1580 N   0  0  0  0  0  0  0  0  0  0  0  0
    1.2058    0.3259    0.2127 C   0  0  0  0  0  0  0  0  0  0  0  0
    2.1143    0.0754   -0.9994 C   0  0  0  0  0  0  0  0  0  0  0  0
   -1.0514    0.5406    0.9998 C   0  0  0  0  0  0  0  0  0  0  0  0
    3.5587    0.0818   -0.6291 C   0  0  0  0  0  0  0  0  0  0  0  0
   -2.4908    0.5055    0.5858 C   0  0  0  0  0  0  0  0  0  0  0  0
   -3.1909   -0.6964    0.6222 C   0  0  0  0  0  0  0  0  0  0  0  0
   -3.1174    1.6751    0.1665 C   0  0  0  0  0  0  0  0  0  0  0  0
    4.1856   -1.1041   -0.2464 C   0  0  0  0  0  0  0  0  0  0  0  0
    4.2832    1.2731   -0.6661 C   0  0  0  0  0  0  0  0  0  0  0  0
   -4.5307   -0.7292    0.2357 C   0  0  0  0  0  0  0  0  0  0  0  0
   -5.1638    0.4402   -0.1852 C   0  0  0  0  0  0  0  0  0  0  0  0
   -4.4571    1.6424   -0.2199 C   0  0  0  0  0  0  0  0  0  0  0  0
    5.5370   -1.0986    0.0993 C   0  0  0  0  0  0  0  0  0  0  0  0
    5.6346    1.2786   -0.3205 C   0  0  0  0  0  0  0  0  0  0  0  0
    6.2615    0.0927    0.0623 C   0  0  0  0  0  0  0  0  0  0  0  0
   -5.1841   -2.7117   -0.9037 C   0  0  0  0  0  0  0  0  0  0  0  0
   -7.4452    0.6535    0.4517 C   0  0  0  0  0  0  0  0  0  0  0  0
    8.1585   -1.1478    0.7820 C   0  0  0  0  0  0  0  0  0  0  0  0
    1.4083   -0.4315    0.9810 H   0  0  0  0  0  0  0  0  0  0  0  0
    1.4511    1.3035    0.6469 H   0  0  0  0  0  0  0  0  0  0  0  0
    1.9262    0.8345   -1.7704 H   0  0  0  0  0  0  0  0  0  0  0  0
    1.8598   -0.8856   -1.4663 H   0  0  0  0  0  0  0  0  0  0  0  0
   -0.8242    1.5182    1.4440 H   0  0  0  0  0  0  0  0  0  0  0  0
   -0.8752   -0.2071    1.7840 H   0  0  0  0  0  0  0  0  0  0  0  0
   -0.4229   -0.6218   -0.5570 H   0  0  0  0  0  0  0  0  0  0  0  0
   -2.7014   -1.6106    0.9489 H   0  0  0  0  0  0  0  0  0  0  0  0
   -2.5768    2.6171    0.1336 H   0  0  0  0  0  0  0  0  0  0  0  0
    3.6308   -2.0382   -0.2121 H   0  0  0  0  0  0  0  0  0  0  0  0
    3.8060    2.2041   -0.9609 H   0  0  0  0  0  0  0  0  0  0  0  0
   -4.9438    2.5570   -0.5479 H   0  0  0  0  0  0  0  0  0  0  0  0
    5.9610   -2.0544    0.3877 H   0  0  0  0  0  0  0  0  0  0  0  0
    6.1937    2.2099   -0.3506 H   0  0  0  0  0  0  0  0  0  0  0  0
   -4.1578   -3.0082   -1.1425 H   0  0  0  0  0  0  0  0  0  0  0  0
   -5.6256   -2.1723   -1.7475 H   0  0  0  0  0  0  0  0  0  0  0  0
   -5.7743   -3.6132   -0.7176 H   0  0  0  0  0  0  0  0  0  0  0  0
   -7.3141    1.6489    0.8877 H   0  0  0  0  0  0  0  0  0  0  0  0
   -7.3772   -0.1108    1.2323 H   0  0  0  0  0  0  0  0  0  0  0  0
   -8.4371    0.5995   -0.0051 H   0  0  0  0  0  0  0  0  0  0  0  0
    9.2109   -0.9575    1.0167 H   0  0  0  0  0  0  0  0  0  0  0  0
    7.6949   -1.5450    1.6914 H   0  0  0  0  0  0  0  0  0  0  0  0
    8.1401   -1.8690   -0.0422 H   0  0  0  0  0  0  0  0  0  0  0  0
  1 14  1  0  0  0  0
  1 20  1  0  0  0  0
  2 15  1  0  0  0  0
  2 21  1  0  0  0  0
  3 19  1  0  0  0  0
  3 22  1  0  0  0  0
  4  5  1  0  0  0  0
  4  7  1  0  0  0  0
  4 29  1  0  0  0  0
  5  6  1  0  0  0  0
  5 23  1  0  0  0  0
  5 24  1  0  0  0  0
  6  8  1  0  0  0  0
  6 25  1  0  0  0  0
  6 26  1  0  0  0  0
  7  9  1  0  0  0  0
  7 27  1  0  0  0  0
  7 28  1  0  0  0  0
  8 12  2  0  0  0  0
  8 13  1  0  0  0  0
  9 10  2  0  0  0  0
  9 11  1  0  0  0  0
 10 14  1  0  0  0  0
 10 30  1  0  0  0  0
 11 16  2  0  0  0  0
 11 31  1  0  0  0  0
 12 17  1  0  0  0  0
 12 32  1  0  0  0  0
 13 18  2  0  0  0  0
 13 33  1  0  0  0  0
 14 15  2  0  0  0  0
 15 16  1  0  0  0  0
 16 34  1  0  0  0  0
 17 19  2  0  0  0  0
 17 35  1  0  0  0  0
 18 19  1  0  0  0  0
 18 36  1  0  0  0  0
 20 37  1  0  0  0  0
 20 38  1  0  0  0  0
 20 39  1  0  0  0  0
 21 40  1  0  0  0  0
 21 41  1  0  0  0  0
 21 42  1  0  0  0  0
 22 43  1  0  0  0  0
 22 44  1  0  0  0  0
 22 45  1  0  0  0  0
M  END
> <PUBCHEM_COMPOUND_CID>
2250212

> <PUBCHEM_CONFORMER_RMSD>
0.8

> <PUBCHEM_CONFORMER_DIVERSEORDER>
1
39
14
68
21
105
107
96
95
31
13
66
55
81
42
92
32
28
29
93
12
8
71
36
89
98
6
11
27
30
2
75
26
44
82
90
101
10
77
102
25
54
84
5
40
99
56
63
104
47
4
79
109
100
23
24
113
41
20
78
76
17
110
87
74
106
22
67
94
58
50
46
48
103
35
51
65
19
60
34
38
111
70
18
15
3
53
85
91
108
80
33
86
83
69
72
112
43
88
97
45
7
49
62
57
59
37
73
61
114
52
9
64
16

> <PUBCHEM_MMFF94_PARTIAL_CHARGES>
30
1 -0.36
10 -0.15
11 -0.15
12 -0.15
13 -0.15
14 0.08
15 0.08
16 -0.15
17 -0.15
18 -0.15
19 0.08
2 -0.36
20 0.28
21 0.28
22 0.28
29 0.36
3 -0.36
30 0.15
31 0.15
32 0.15
33 0.15
34 0.15
35 0.15
36 0.15
4 -0.9
5 0.27
6 0.14
7 0.41
8 -0.14
9 -0.14

> <PUBCHEM_EFFECTIVE_ROTOR_COUNT>
8

> <PUBCHEM_PHARMACOPHORE_FEATURES>
7
1 1 acceptor
1 2 acceptor
1 3 acceptor
1 4 cation
1 4 donor
6 8 12 13 17 18 19 rings
6 9 10 11 14 15 16 rings

> <PUBCHEM_HEAVY_ATOM_COUNT>
22

> <PUBCHEM_ATOM_DEF_STEREO_COUNT>
0

> <PUBCHEM_ATOM_UDEF_STEREO_COUNT>
0

> <PUBCHEM_BOND_DEF_STEREO_COUNT>
0

> <PUBCHEM_BOND_UDEF_STEREO_COUNT>
0

> <PUBCHEM_ISOTOPIC_ATOM_COUNT>
0

> <PUBCHEM_COMPONENT_COUNT>
1

> <PUBCHEM_CACTVS_TAUTO_COUNT>
1

> <PUBCHEM_CONFORMER_ID>
002255E400000001

> <PUBCHEM_MMFF94_ENERGY>
80.6088

> <PUBCHEM_FEATURE_SELFOVERLAP>
35.526

> <PUBCHEM_SHAPE_FINGERPRINT>
10 15 17917987292247429200
10595046 47 18408606976351255324
106641 1 13254792460993636613
10670039 82 14418124098067504095
11089746 13 17748828523108979640
11315181 36 18343587352048020401
11524674 6 16702303473378023271
11719270 70 18343864390761662886
12091667 2 17821731628424073785
12166972 35 18187931711565920532
12236239 1 18334576862863933758
12516196 113 17132115727732879920
12643181 29 18343298176675080063
13914758 101 17676483917391035436
14123256 10 16415478238236103640
14251764 18 18113619006768463620
14251764 46 12679459781312547532
15183329 4 16443338788862555282
15716309 27 18334294271095421468
17093844 174 16200434663618002883
17857418 61 18334575741729932362
19489759 90 18187367623039457473
21054139 6 18335136518483084714
21315763 129 18408323285403950844
22224240 67 15697996336609838350
23035841 295 18410857659837343121
23081809 10 18040444299915571060
23402539 116 18114183055653290053
23536379 177 18333452027718778792
23559900 14 18341325699853898601
3004659 81 18187365420227455008
3545911 37 11386368149230029521
4073 2 17749679583716040282
4325135 7 18342739611218311500
5104073 3 16701195070804083338
559249 180 18335701663401937071
5758199 1 12967126117063775308
59682541 35 15985096435961525878
59755656 215 15647049331734490232
59755656 520 15791735222127093409
67856867 119 18336833107615972852
7495541 125 17988644137940522128

> <PUBCHEM_SHAPE_MULTIPOLES>
430.16
24.02
1.79
0.89
15.67
0.84
0.01
3.8
-1.66
-2.18
0.29
0.08
0.07
-1.06

> <PUBCHEM_SHAPE_SELFOVERLAP>
894.34

> <PUBCHEM_SHAPE_VOLUME>
246.7

> <PUBCHEM_COORDINATE_TYPE>
2
5
10

$$$$
