5318528
  -OEChem-04052509263D

 45 48  0     1  0  0  0  0  0999 V2000
   -2.1760   -0.7777    0.0475 O   0  0  0  0  0  0  0  0  0  0  0  0
    1.3749    2.4651    0.6819 O   0  0  0  0  0  0  0  0  0  0  0  0
   -1.0236    3.1594    0.0109 O   0  0  0  0  0  0  0  0  0  0  0  0
    2.2099   -2.2124    1.0990 O   0  0  0  0  0  0  0  0  0  0  0  0
    5.3663   -1.4465    1.4170 O   0  0  0  0  0  0  0  0  0  0  0  0
   -3.1166    0.2651    0.3483 C   0  0  1  0  0  0  0  0  0  0  0  0
   -2.7605    1.5539   -0.3901 C   0  0  0  0  0  0  0  0  0  0  0  0
   -0.4312    0.8991    0.3491 C   0  0  0  0  0  0  0  0  0  0  0  0
   -0.8807   -0.4245    0.3249 C   0  0  0  0  0  0  0  0  0  0  0  0
   -1.3748    1.9855    0.0141 C   0  0  0  0  0  0  0  0  0  0  0  0
    1.7920    0.1406    0.9018 C   0  0  0  0  0  0  0  0  0  0  0  0
    0.9040    1.1857    0.6440 C   0  0  0  0  0  0  0  0  0  0  0  0
   -4.5017   -0.2158   -0.0296 C   0  0  0  0  0  0  0  0  0  0  0  0
    3.2239    0.4336    1.2209 C   0  0  0  0  0  0  0  0  0  0  0  0
    0.0166   -1.4663    0.5634 C   0  0  0  0  0  0  0  0  0  0  0  0
    1.3508   -1.1824    0.8568 C   0  0  0  0  0  0  0  0  0  0  0  0
    4.1748    0.1456    0.0790 C   0  0  0  0  0  0  0  0  0  0  0  0
   -5.6110    0.2114    0.6999 C   0  0  0  0  0  0  0  0  0  0  0  0
   -4.6679   -1.0854   -1.1074 C   0  0  0  0  0  0  0  0  0  0  0  0
    5.1926   -0.7789    0.2420 C   0  0  0  0  0  0  0  0  0  0  0  0
   -6.8870   -0.2313    0.3517 C   0  0  0  0  0  0  0  0  0  0  0  0
   -5.9441   -1.5279   -1.4556 C   0  0  0  0  0  0  0  0  0  0  0  0
    3.9989    0.8242   -1.1154 C   0  0  0  0  0  0  0  0  0  0  0  0
   -7.0536   -1.1009   -0.7259 C   0  0  0  0  0  0  0  0  0  0  0  0
    6.0602   -1.0324   -0.8205 C   0  0  0  0  0  0  0  0  0  0  0  0
    4.8666    0.5706   -2.1778 C   0  0  0  0  0  0  0  0  0  0  0  0
    5.8972   -0.3575   -2.0303 C   0  0  0  0  0  0  0  0  0  0  0  0
   -3.0922    0.4229    1.4369 H   0  0  0  0  0  0  0  0  0  0  0  0
   -3.4676    2.3509   -0.1348 H   0  0  0  0  0  0  0  0  0  0  0  0
   -2.7613    1.4140   -1.4775 H   0  0  0  0  0  0  0  0  0  0  0  0
    3.4978   -0.1132    2.1327 H   0  0  0  0  0  0  0  0  0  0  0  0
    3.3906    1.4691    1.5418 H   0  0  0  0  0  0  0  0  0  0  0  0
   -0.3242   -2.4982    0.5315 H   0  0  0  0  0  0  0  0  0  0  0  0
   -5.4942    0.8906    1.5403 H   0  0  0  0  0  0  0  0  0  0  0  0
   -3.8221   -1.4224   -1.7002 H   0  0  0  0  0  0  0  0  0  0  0  0
    2.2898    2.5087    0.3665 H   0  0  0  0  0  0  0  0  0  0  0  0
   -7.7511    0.1018    0.9192 H   0  0  0  0  0  0  0  0  0  0  0  0
   -6.0745   -2.2025   -2.2968 H   0  0  0  0  0  0  0  0  0  0  0  0
    3.2085    1.5517   -1.2602 H   0  0  0  0  0  0  0  0  0  0  0  0
   -8.0473   -1.4447   -0.9977 H   0  0  0  0  0  0  0  0  0  0  0  0
    3.0598   -1.9055    1.4444 H   0  0  0  0  0  0  0  0  0  0  0  0
    6.8674   -1.7529   -0.7197 H   0  0  0  0  0  0  0  0  0  0  0  0
    4.7401    1.0959   -3.1199 H   0  0  0  0  0  0  0  0  0  0  0  0
    6.5726   -0.5548   -2.8576 H   0  0  0  0  0  0  0  0  0  0  0  0
    6.1262   -2.0474    1.3314 H   0  0  0  0  0  0  0  0  0  0  0  0
  1  6  1  0  0  0  0
  1  9  1  0  0  0  0
  2 12  1  0  0  0  0
  2 36  1  0  0  0  0
  3 10  2  0  0  0  0
  4 16  1  0  0  0  0
  4 41  1  0  0  0  0
  5 20  1  0  0  0  0
  5 45  1  0  0  0  0
  6  7  1  0  0  0  0
  6 13  1  0  0  0  0
  6 28  1  0  0  0  0
  7 10  1  0  0  0  0
  7 29  1  0  0  0  0
  7 30  1  0  0  0  0
  8  9  2  0  0  0  0
  8 10  1  0  0  0  0
  8 12  1  0  0  0  0
  9 15  1  0  0  0  0
 11 12  2  0  0  0  0
 11 14  1  0  0  0  0
 11 16  1  0  0  0  0
 13 18  2  0  0  0  0
 13 19  1  0  0  0  0
 14 17  1  0  0  0  0
 14 31  1  0  0  0  0
 14 32  1  0  0  0  0
 15 16  2  0  0  0  0
 15 33  1  0  0  0  0
 17 20  1  0  0  0  0
 17 23  2  0  0  0  0
 18 21  1  0  0  0  0
 18 34  1  0  0  0  0
 19 22  2  0  0  0  0
 19 35  1  0  0  0  0
 20 25  2  0  0  0  0
 21 24  2  0  0  0  0
 21 37  1  0  0  0  0
 22 24  1  0  0  0  0
 22 38  1  0  0  0  0
 23 26  1  0  0  0  0
 23 39  1  0  0  0  0
 24 40  1  0  0  0  0
 25 27  1  0  0  0  0
 25 42  1  0  0  0  0
 26 27  2  0  0  0  0
 26 43  1  0  0  0  0
 27 44  1  0  0  0  0
M  END
> <PUBCHEM_COMPOUND_CID>
5318528

> <PUBCHEM_CONFORMER_RMSD>
0.8

> <PUBCHEM_CONFORMER_DIVERSEORDER>
3
12
17
8
19
14
6
20
18
1
11
16
4
7
10
15
5
9
2
13

> <PUBCHEM_MMFF94_PARTIAL_CHARGES>
40
1 -0.36
10 0.42
11 -0.14
12 0.08
13 -0.14
14 0.29
15 -0.15
16 0.08
17 -0.14
18 -0.15
19 -0.15
2 -0.53
20 0.08
21 -0.15
22 -0.15
23 -0.15
24 -0.15
25 -0.15
26 -0.15
27 -0.15
3 -0.57
33 0.15
34 0.15
35 0.15
36 0.45
37 0.15
38 0.15
39 0.15
4 -0.53
40 0.15
41 0.45
42 0.15
43 0.15
44 0.15
45 0.45
5 -0.53
6 0.42
7 0.06
8 0.09
9 0.08

> <PUBCHEM_EFFECTIVE_ROTOR_COUNT>
3.6

> <PUBCHEM_PHARMACOPHORE_FEATURES>
9
1 1 acceptor
1 2 donor
1 3 acceptor
1 4 donor
1 5 donor
6 1 6 7 8 9 10 rings
6 13 18 19 21 22 24 rings
6 17 20 23 25 26 27 rings
6 8 9 11 12 15 16 rings

> <PUBCHEM_HEAVY_ATOM_COUNT>
27

> <PUBCHEM_ATOM_DEF_STEREO_COUNT>
1

> <PUBCHEM_ATOM_UDEF_STEREO_COUNT>
0

> <PUBCHEM_BOND_DEF_STEREO_COUNT>
0

> <PUBCHEM_BOND_UDEF_STEREO_COUNT>
0

> <PUBCHEM_ISOTOPIC_ATOM_COUNT>
0

> <PUBCHEM_COMPONENT_COUNT>
1

> <PUBCHEM_CACTVS_TAUTO_COUNT>
63

> <PUBCHEM_CONFORMER_ID>
0051278000000003

> <PUBCHEM_MMFF94_ENERGY>
87.2031

> <PUBCHEM_FEATURE_SELFOVERLAP>
45.702

> <PUBCHEM_SHAPE_FINGERPRINT>
10 15 11383829394061370519
10366900 7 18187364337647842025
10670039 82 18114185194600089084
10693767 8 18271801362888466367
10906281 52 18261687978264723875
11524674 6 15697998548697493999
11796584 16 15985106318623343287
11963148 33 18410847776696790591
11991303 11 17458910447969742779
12011746 2 18334294279827884811
12166972 35 17749391464050467340
12236239 1 17749392537655069173
12422481 6 16630525184809442085
12788726 201 18188201010246608713
13150687 139 18189352289900855726
13540713 5 17972033643848993840
13685833 64 16917072157087836782
13782708 43 16917064486471568231
13862211 1 18410848858853293859
13899415 154 18408892858133255977
13911987 19 17748834029077640107
14251764 30 17561367266160355167
14294032 229 18120100476695035949
14347332 77 18339640036268166980
14466204 15 9439136350974542535
14556957 393 17676780785683757397
14767858 380 18259707800092270574
14955137 171 17632294618570355065
15131766 46 15070053263561622166
15142383 8 14548741672705319251
15183329 4 18342461451877478991
15352257 5 17131837560023477455
15475509 8 18201734937390334989
15537594 2 18411133637293123851
16087824 20 18266172826793893437
17492 89 18049999996385358634
18222031 100 18342454867750591033
19319366 153 17967523575943684898
20028762 73 18060696212618784535
2026 5 17914627056002266662
20554085 129 11314303984103220285
20567600 75 15338844140388393041
21033648 29 12901838254725492188
21267235 1 18413109490000597091
21344244 181 17774734099317990166
21623969 137 15123514704867172820
21637258 2 16773794796835358109
21641784 216 17967537835292837765
21781051 124 18114472248275464099
21814621 53 15841274731506713738
21857420 4 16262594681126011302
21859007 373 12391244738453156939
221357 26 18411983555180329376
23035841 295 18201720656930056775
23522609 53 18194428669634133241
23559900 14 17896037805619729209
23569914 2 14060620276072183247
23569943 247 17843977952484379263
25147074 1 18189617133514099248
3004659 81 18334579032181055878
33382 64 16486981674118847486
34797466 226 17560801065254326968
4058900 60 17458902631450224843
4093350 32 17060055995333988696
4325135 7 18260550004587724527
484989 97 17896616156824818442
5385378 56 8934734304730978333
5718773 13 17345767261835317294
59755656 215 18411699868174375983
6009941 240 16056051120931065657
6058803 2 17755301176379180088
7237137 82 18260544477360746069
86090 222 16127836113869360606

> <PUBCHEM_SHAPE_MULTIPOLES>
526.3
17.32
2.05
1.46
10.08
1.06
0.56
-7.68
6.31
0.31
-0.13
-1.93
-0.33
-1.19

> <PUBCHEM_SHAPE_SELFOVERLAP>
1174.423

> <PUBCHEM_SHAPE_VOLUME>
277.7

> <PUBCHEM_COORDINATE_TYPE>
2
5
10

$$$$
