101357706
  -OEChem-04052509213D

 81 84  0     1  0  0  0  0  0999 V2000
    1.2614   -1.7350   -1.8581 O   0  0  0  0  0  0  0  0  0  0  0  0
    1.8942    2.5480    0.2835 O   0  0  0  0  0  0  0  0  0  0  0  0
    6.4247    2.5533    0.0315 O   0  0  0  0  0  0  0  0  0  0  0  0
    6.0377    0.7926    2.1229 O   0  0  0  0  0  0  0  0  0  0  0  0
    1.2177   -1.1607   -0.5486 C   0  0  1  0  0  0  0  0  0  0  0  0
    1.9852    0.2239   -0.6163 C   0  0  2  0  0  0  0  0  0  0  0  0
   -0.2615   -0.9862   -0.1160 C   0  0  1  0  0  0  0  0  0  0  0  0
   -0.9356    0.3050   -0.5961 C   0  0  1  0  0  0  0  0  0  0  0  0
    3.5867    0.0625   -0.5789 C   0  0  2  0  0  0  0  0  0  0  0  0
    4.0389   -0.9513    0.5269 C   0  0  1  0  0  0  0  0  0  0  0  0
    1.3071    1.2508    0.3438 C   0  0  2  0  0  0  0  0  0  0  0  0
   -2.3635    0.0782   -0.0241 C   0  0  2  0  0  0  0  0  0  0  0  0
   -0.2014    1.4906    0.0507 C   0  0  0  0  0  0  0  0  0  0  0  0
    1.8460   -2.1612    0.4435 C   0  0  0  0  0  0  0  0  0  0  0  0
   -1.2732   -2.0845   -0.4608 C   0  0  0  0  0  0  0  0  0  0  0  0
    3.3523   -2.3089    0.3361 C   0  0  0  0  0  0  0  0  0  0  0  0
   -2.6468   -1.4115   -0.3039 C   0  0  0  0  0  0  0  0  0  0  0  0
    4.3280    1.4056   -0.3221 C   0  0  0  0  0  0  0  0  0  0  0  0
    5.5941   -1.0974    0.6334 C   0  0  1  0  0  0  0  0  0  0  0  0
   -0.9799    0.4678   -2.1330 C   0  0  0  0  0  0  0  0  0  0  0  0
    4.0268   -0.4269   -1.9966 C   0  0  0  0  0  0  0  0  0  0  0  0
    5.8522    1.2763   -0.2469 C   0  0  2  0  0  0  0  0  0  0  0  0
    6.2889    0.2692    0.8160 C   0  0  1  0  0  0  0  0  0  0  0  0
   -3.4602    0.9986   -0.5410 C   0  0  2  0  0  0  0  0  0  0  0  0
    6.0203   -2.0416    1.7685 C   0  0  0  0  0  0  0  0  0  0  0  0
   -3.1304    2.4612   -0.2328 C   0  0  0  0  0  0  0  0  0  0  0  0
   -4.7916    0.6291    0.0735 C   0  0  0  0  0  0  0  0  0  0  0  0
   -5.8549    0.2339   -0.6458 C   0  0  0  0  0  0  0  0  0  0  0  0
   -7.1822   -0.1358   -0.1492 C   0  0  0  0  0  0  0  0  0  0  0  0
   -7.4610   -0.1115    1.3541 C   0  0  0  0  0  0  0  0  0  0  0  0
   -8.1121   -0.5055   -1.0500 C   0  0  0  0  0  0  0  0  0  0  0  0
   -8.4331   -1.1946    1.8485 C   0  0  0  0  0  0  0  0  0  0  0  0
   -7.9750    1.2663    1.7874 C   0  0  0  0  0  0  0  0  0  0  0  0
    1.8146    0.6556   -1.6116 H   0  0  0  0  0  0  0  0  0  0  0  0
   -0.2582   -0.9289    0.9862 H   0  0  0  0  0  0  0  0  0  0  0  0
    3.6882   -0.5536    1.4904 H   0  0  0  0  0  0  0  0  0  0  0  0
    1.4281    0.8889    1.3722 H   0  0  0  0  0  0  0  0  0  0  0  0
   -2.3148    0.1854    1.0717 H   0  0  0  0  0  0  0  0  0  0  0  0
   -0.6629    1.7644    1.0080 H   0  0  0  0  0  0  0  0  0  0  0  0
   -0.2967    2.3831   -0.5796 H   0  0  0  0  0  0  0  0  0  0  0  0
    1.4005   -3.1551    0.3072 H   0  0  0  0  0  0  0  0  0  0  0  0
    1.6207   -1.8571    1.4744 H   0  0  0  0  0  0  0  0  0  0  0  0
   -1.1741   -2.9484    0.2043 H   0  0  0  0  0  0  0  0  0  0  0  0
   -1.1630   -2.4449   -1.4886 H   0  0  0  0  0  0  0  0  0  0  0  0
    3.6579   -3.0097    1.1199 H   0  0  0  0  0  0  0  0  0  0  0  0
    3.6327   -2.7749   -0.6139 H   0  0  0  0  0  0  0  0  0  0  0  0
   -3.2305   -1.5587   -1.2200 H   0  0  0  0  0  0  0  0  0  0  0  0
   -3.2090   -1.8643    0.5206 H   0  0  0  0  0  0  0  0  0  0  0  0
    4.0084    1.8390    0.6309 H   0  0  0  0  0  0  0  0  0  0  0  0
    4.0672    2.1394   -1.0956 H   0  0  0  0  0  0  0  0  0  0  0  0
    5.9678   -1.5391   -0.2988 H   0  0  0  0  0  0  0  0  0  0  0  0
   -1.5444   -0.3354   -2.6176 H   0  0  0  0  0  0  0  0  0  0  0  0
    0.0108    0.4705   -2.5894 H   0  0  0  0  0  0  0  0  0  0  0  0
   -1.4474    1.4128   -2.4267 H   0  0  0  0  0  0  0  0  0  0  0  0
    5.1024   -0.5993   -2.0774 H   0  0  0  0  0  0  0  0  0  0  0  0
    3.7675    0.3183   -2.7581 H   0  0  0  0  0  0  0  0  0  0  0  0
    3.5545   -1.3647   -2.2920 H   0  0  0  0  0  0  0  0  0  0  0  0
    6.2545    0.9689   -1.2171 H   0  0  0  0  0  0  0  0  0  0  0  0
    7.3764    0.1436    0.7552 H   0  0  0  0  0  0  0  0  0  0  0  0
   -3.5491    0.9019   -1.6302 H   0  0  0  0  0  0  0  0  0  0  0  0
    0.9879   -2.6656   -1.8005 H   0  0  0  0  0  0  0  0  0  0  0  0
    1.4775    3.0938    0.9722 H   0  0  0  0  0  0  0  0  0  0  0  0
    5.5308   -1.7830    2.7131 H   0  0  0  0  0  0  0  0  0  0  0  0
    7.1040   -1.9992    1.9240 H   0  0  0  0  0  0  0  0  0  0  0  0
    5.7794   -3.0823    1.5315 H   0  0  0  0  0  0  0  0  0  0  0  0
   -2.8413    2.6069    0.8134 H   0  0  0  0  0  0  0  0  0  0  0  0
   -4.0083    3.0949   -0.4111 H   0  0  0  0  0  0  0  0  0  0  0  0
   -2.3479    2.8553   -0.8828 H   0  0  0  0  0  0  0  0  0  0  0  0
   -4.8488    0.7210    1.1541 H   0  0  0  0  0  0  0  0  0  0  0  0
    6.1420    3.1613   -0.6727 H   0  0  0  0  0  0  0  0  0  0  0  0
    5.0800    0.8956    2.2418 H   0  0  0  0  0  0  0  0  0  0  0  0
   -5.7296    0.1748   -1.7268 H   0  0  0  0  0  0  0  0  0  0  0  0
   -6.5310   -0.3172    1.8964 H   0  0  0  0  0  0  0  0  0  0  0  0
   -9.1170   -0.7866   -0.7559 H   0  0  0  0  0  0  0  0  0  0  0  0
   -7.9043   -0.5282   -2.1158 H   0  0  0  0  0  0  0  0  0  0  0  0
   -8.4612   -1.2094    2.9439 H   0  0  0  0  0  0  0  0  0  0  0  0
   -8.1177   -2.1884    1.5122 H   0  0  0  0  0  0  0  0  0  0  0  0
   -9.4565   -1.0201    1.4997 H   0  0  0  0  0  0  0  0  0  0  0  0
   -8.1181    1.3027    2.8729 H   0  0  0  0  0  0  0  0  0  0  0  0
   -7.2648    2.0568    1.5215 H   0  0  0  0  0  0  0  0  0  0  0  0
   -8.9345    1.5026    1.3139 H   0  0  0  0  0  0  0  0  0  0  0  0
  1  5  1  0  0  0  0
  1 61  1  0  0  0  0
  2 11  1  0  0  0  0
  2 62  1  0  0  0  0
  3 22  1  0  0  0  0
  3 70  1  0  0  0  0
  4 23  1  0  0  0  0
  4 71  1  0  0  0  0
  5  6  1  0  0  0  0
  5  7  1  0  0  0  0
  5 14  1  0  0  0  0
  6  9  1  0  0  0  0
  6 11  1  0  0  0  0
  6 34  1  0  0  0  0
  7  8  1  0  0  0  0
  7 15  1  0  0  0  0
  7 35  1  0  0  0  0
  8 12  1  0  0  0  0
  8 13  1  0  0  0  0
  8 20  1  0  0  0  0
  9 10  1  0  0  0  0
  9 18  1  0  0  0  0
  9 21  1  0  0  0  0
 10 16  1  0  0  0  0
 10 19  1  0  0  0  0
 10 36  1  0  0  0  0
 11 13  1  0  0  0  0
 11 37  1  0  0  0  0
 12 17  1  0  0  0  0
 12 24  1  0  0  0  0
 12 38  1  0  0  0  0
 13 39  1  0  0  0  0
 13 40  1  0  0  0  0
 14 16  1  0  0  0  0
 14 41  1  0  0  0  0
 14 42  1  0  0  0  0
 15 17  1  0  0  0  0
 15 43  1  0  0  0  0
 15 44  1  0  0  0  0
 16 45  1  0  0  0  0
 16 46  1  0  0  0  0
 17 47  1  0  0  0  0
 17 48  1  0  0  0  0
 18 22  1  0  0  0  0
 18 49  1  0  0  0  0
 18 50  1  0  0  0  0
 19 23  1  0  0  0  0
 19 25  1  0  0  0  0
 19 51  1  0  0  0  0
 20 52  1  0  0  0  0
 20 53  1  0  0  0  0
 20 54  1  0  0  0  0
 21 55  1  0  0  0  0
 21 56  1  0  0  0  0
 21 57  1  0  0  0  0
 22 23  1  0  0  0  0
 22 58  1  0  0  0  0
 23 59  1  0  0  0  0
 24 26  1  0  0  0  0
 24 27  1  0  0  0  0
 24 60  1  0  0  0  0
 25 63  1  0  0  0  0
 25 64  1  0  0  0  0
 25 65  1  0  0  0  0
 26 66  1  0  0  0  0
 26 67  1  0  0  0  0
 26 68  1  0  0  0  0
 27 28  2  0  0  0  0
 27 69  1  0  0  0  0
 28 29  1  0  0  0  0
 28 72  1  0  0  0  0
 29 30  1  0  0  0  0
 29 31  2  0  0  0  0
 30 32  1  0  0  0  0
 30 33  1  0  0  0  0
 30 73  1  0  0  0  0
 31 74  1  0  0  0  0
 31 75  1  0  0  0  0
 32 76  1  0  0  0  0
 32 77  1  0  0  0  0
 32 78  1  0  0  0  0
 33 79  1  0  0  0  0
 33 80  1  0  0  0  0
 33 81  1  0  0  0  0
M  END
> <PUBCHEM_COMPOUND_CID>
101357706

> <PUBCHEM_CONFORMER_RMSD>
0.8

> <PUBCHEM_CONFORMER_DIVERSEORDER>
1
17
22
15
21
24
26
12
23
19
28
8
6
11
16
13
18
9
20
25
27
3
10
7
14
2
5
4

> <PUBCHEM_MMFF94_PARTIAL_CHARGES>
22
1 -0.68
11 0.28
2 -0.68
22 0.28
23 0.28
24 0.14
27 -0.29
28 -0.15
29 -0.14
3 -0.68
30 0.14
31 -0.3
4 -0.68
5 0.28
61 0.4
62 0.4
69 0.15
70 0.4
71 0.4
72 0.15
74 0.15
75 0.15

> <PUBCHEM_EFFECTIVE_ROTOR_COUNT>
6.2

> <PUBCHEM_PHARMACOPHORE_FEATURES>
15
1 1 acceptor
1 1 donor
1 2 acceptor
1 2 donor
1 26 hydrophobe
1 3 acceptor
1 3 donor
1 31 hydrophobe
1 4 acceptor
1 4 donor
3 30 32 33 hydrophobe
5 7 8 12 15 17 rings
6 5 6 7 8 11 13 rings
6 5 6 9 10 14 16 rings
6 9 10 18 19 22 23 rings

> <PUBCHEM_HEAVY_ATOM_COUNT>
33

> <PUBCHEM_ATOM_DEF_STEREO_COUNT>
12

> <PUBCHEM_ATOM_UDEF_STEREO_COUNT>
0

> <PUBCHEM_BOND_DEF_STEREO_COUNT>
1

> <PUBCHEM_BOND_UDEF_STEREO_COUNT>
0

> <PUBCHEM_ISOTOPIC_ATOM_COUNT>
0

> <PUBCHEM_COMPONENT_COUNT>
1

> <PUBCHEM_CACTVS_TAUTO_COUNT>
1

> <PUBCHEM_CONFORMER_ID>
060A988A00000001

> <PUBCHEM_MMFF94_ENERGY>
138.7538

> <PUBCHEM_FEATURE_SELFOVERLAP>
76.232

> <PUBCHEM_SHAPE_FINGERPRINT>
10 15 18187366562045313808
10162869 55 18338506543708569063
10906281 52 18272656774366033927
11135609 187 10590889109328767378
11181472 205 14404646272150457491
11456790 92 18343299245446412144
11578080 2 17058348513282966306
11646440 116 18059856151533278097
11828532 37 15357993299175115169
12035758 1 18411411821823433601
12166972 35 17022911151068278317
12539765 74 17203337693244668607
12788726 201 17774723069941908304
13073987 5 18337389331919243841
13782708 43 17531525361094624203
13811026 1 17385720288709319421
13835254 42 17489315113999596344
13914758 101 14779541258704897405
14251757 52 14261349146226614251
14251764 18 18272369785051858073
14294032 229 17632853119116921621
14849402 71 18201158849448973545
15183329 4 18342174475585387999
15461852 350 12679171701779085089
15510794 2 17821728348113473587
15840311 113 18408039628804939036
15849732 13 16805322210804798015
16728433 281 12606589614461208083
16994733 274 16415203343576877299
18335252 114 10015582783666571171
18608769 82 18335421313875268387
19319366 153 18260822687745807426
19377110 9 18201160962535355481
21033648 29 15338825461280399210
21130935 74 18040996185679842739
21267235 1 18337393734455966166
21424621 283 14908187434917083015
21521721 280 18413392059339413089
21781051 124 17968674768733279819
22149856 69 18130799901964390009
23522609 53 18197807503880109221
23559900 14 18336819914030093265
23576562 1 12031200912001000457
24771293 8 18131068247205354025
3178227 256 18409736175140959297
335352 9 18410856564879132894
3383291 50 18187645787003072331
34797466 226 17989212537985649356
350125 39 18411978096181814373
3680242 22 18337669720749036608
4093350 32 16988571181764640110
4340502 62 17894351072708856818
5104073 3 18264209102413323865
5758199 1 17917714604547147511
58083652 198 18343016723595556609
70251023 43 16700635389600369390
9689198 14 14549018788928404107

> <PUBCHEM_SHAPE_MULTIPOLES>
655.65
22.23
2.35
1.59
33.16
0.15
-0.05
0.07
-10.54
-2.31
-0.35
0.38
-0.24
-0.28

> <PUBCHEM_SHAPE_SELFOVERLAP>
1365.254

> <PUBCHEM_SHAPE_VOLUME>
371

> <PUBCHEM_COORDINATE_TYPE>
2
5
10

$$$$
