16099429
  -OEChem-04052509273D

 85 88  0     1  0  0  0  0  0999 V2000
    4.6441    0.5032   -1.4237 O   0  0  0  0  0  0  0  0  0  0  0  0
    2.7565    0.7245    2.3949 O   0  0  0  0  0  0  0  0  0  0  0  0
   -5.1887   -0.9866   -0.7291 O   0  0  0  0  0  0  0  0  0  0  0  0
   -6.6967    2.3725   -0.6068 O   0  0  0  0  0  0  0  0  0  0  0  0
    6.2750   -2.5472   -0.4555 O   0  0  0  0  0  0  0  0  0  0  0  0
    2.6817    0.1607    0.0047 C   0  0  1  0  0  0  0  0  0  0  0  0
    1.9133    0.8100    1.2358 C   0  0  2  0  0  0  0  0  0  0  0  0
    1.6137    2.3324    0.9912 C   0  0  2  0  0  0  0  0  0  0  0  0
    3.9362    1.0323   -0.3072 C   0  0  2  0  0  0  0  0  0  0  0  0
   -2.8856   -0.2674   -0.2427 C   0  0  1  0  0  0  0  0  0  0  0  0
    0.5956    0.0856    1.5842 C   0  0  0  0  0  0  0  0  0  0  0  0
   -1.7073   -0.5352    0.7828 C   0  0  2  0  0  0  0  0  0  0  0  0
   -0.3923    0.1848    0.4341 C   0  0  0  0  0  0  0  0  0  0  0  0
    3.1375   -1.3195    0.2656 C   0  0  0  0  0  0  0  0  0  0  0  0
    2.8650    3.1199    0.5660 C   0  0  0  0  0  0  0  0  0  0  0  0
    3.5799    2.4844   -0.6160 C   0  0  0  0  0  0  0  0  0  0  0  0
   -4.1717   -1.0005    0.2709 C   0  0  2  0  0  0  0  0  0  0  0  0
    1.7430    0.0930   -1.2341 C   0  0  0  0  0  0  0  0  0  0  0  0
   -3.1363    1.2707   -0.3277 C   0  0  0  0  0  0  0  0  0  0  0  0
   -1.5401   -2.0299    1.0448 C   0  0  0  0  0  0  0  0  0  0  0  0
   -3.9331   -2.4854    0.5873 C   0  0  0  0  0  0  0  0  0  0  0  0
    4.5478   -1.5155    0.8146 C   0  0  0  0  0  0  0  0  0  0  0  0
    0.9968    3.0410    2.2087 C   0  0  0  0  0  0  0  0  0  0  0  0
   -2.5052   -0.7698   -1.6598 C   0  0  0  0  0  0  0  0  0  0  0  0
   -2.7872   -2.6958    1.5643 C   0  0  0  0  0  0  0  0  0  0  0  0
   -4.3990    1.7620   -1.0441 C   0  0  0  0  0  0  0  0  0  0  0  0
    5.8025   -0.2747   -1.1523 C   0  0  0  0  0  0  0  0  0  0  0  0
   -6.2255   -0.0098   -0.6176 C   0  0  0  0  0  0  0  0  0  0  0  0
   -5.6898    1.4059   -0.2991 C   0  0  2  0  0  0  0  0  0  0  0  0
    5.5790   -1.5395   -0.2976 C   0  0  0  0  0  0  0  0  0  0  0  0
   -0.4215   -2.7452    0.8443 C   0  0  0  0  0  0  0  0  0  0  0  0
    6.2811   -0.7196   -2.5459 C   0  0  0  0  0  0  0  0  0  0  0  0
    6.9119    0.5725   -0.5139 C   0  0  0  0  0  0  0  0  0  0  0  0
   -6.9493   -0.0544   -1.9772 C   0  0  0  0  0  0  0  0  0  0  0  0
   -7.2312   -0.4593    0.4561 C   0  0  0  0  0  0  0  0  0  0  0  0
    0.9143    2.4633    0.1613 H   0  0  0  0  0  0  0  0  0  0  0  0
    4.5849    1.0740    0.5726 H   0  0  0  0  0  0  0  0  0  0  0  0
    0.1541    0.5280    2.4861 H   0  0  0  0  0  0  0  0  0  0  0  0
    0.8178   -0.9262    1.9185 H   0  0  0  0  0  0  0  0  0  0  0  0
   -2.0372   -0.1054    1.7424 H   0  0  0  0  0  0  0  0  0  0  0  0
   -0.1525   -0.3223   -0.4711 H   0  0  0  0  0  0  0  0  0  0  0  0
   -0.6185    1.2261    0.2206 H   0  0  0  0  0  0  0  0  0  0  0  0
    3.0660   -1.9022   -0.6632 H   0  0  0  0  0  0  0  0  0  0  0  0
    2.4567   -1.8026    0.9677 H   0  0  0  0  0  0  0  0  0  0  0  0
    3.5621    3.1958    1.4106 H   0  0  0  0  0  0  0  0  0  0  0  0
    2.5876    4.1477    0.3006 H   0  0  0  0  0  0  0  0  0  0  0  0
    2.9659    2.5531   -1.5217 H   0  0  0  0  0  0  0  0  0  0  0  0
    4.4943    3.0474   -0.8413 H   0  0  0  0  0  0  0  0  0  0  0  0
   -4.5183   -0.5247    1.1967 H   0  0  0  0  0  0  0  0  0  0  0  0
    1.0925    0.9579   -1.3786 H   0  0  0  0  0  0  0  0  0  0  0  0
    2.3678    0.1244   -2.1396 H   0  0  0  0  0  0  0  0  0  0  0  0
    1.2591   -0.8792   -1.3702 H   0  0  0  0  0  0  0  0  0  0  0  0
   -2.2969    1.7470   -0.8489 H   0  0  0  0  0  0  0  0  0  0  0  0
   -3.1387    1.6910    0.6870 H   0  0  0  0  0  0  0  0  0  0  0  0
   -3.7502   -3.0460   -0.3390 H   0  0  0  0  0  0  0  0  0  0  0  0
   -4.8531   -2.9158    1.0036 H   0  0  0  0  0  0  0  0  0  0  0  0
    4.5892   -2.5000    1.2992 H   0  0  0  0  0  0  0  0  0  0  0  0
    4.8342   -0.7919    1.5810 H   0  0  0  0  0  0  0  0  0  0  0  0
    0.8910    4.1149    2.0162 H   0  0  0  0  0  0  0  0  0  0  0  0
   -0.0062    2.6665    2.4307 H   0  0  0  0  0  0  0  0  0  0  0  0
    1.6168    2.9267    3.1035 H   0  0  0  0  0  0  0  0  0  0  0  0
   -1.6677   -0.2012   -2.0779 H   0  0  0  0  0  0  0  0  0  0  0  0
   -2.2166   -1.8252   -1.6595 H   0  0  0  0  0  0  0  0  0  0  0  0
   -3.3345   -0.6625   -2.3666 H   0  0  0  0  0  0  0  0  0  0  0  0
   -2.6394   -3.7709    1.7207 H   0  0  0  0  0  0  0  0  0  0  0  0
   -3.0436   -2.2691    2.5418 H   0  0  0  0  0  0  0  0  0  0  0  0
    2.8159   -0.2073    2.6634 H   0  0  0  0  0  0  0  0  0  0  0  0
   -4.3324    2.8560   -1.1167 H   0  0  0  0  0  0  0  0  0  0  0  0
   -4.4242    1.4096   -2.0803 H   0  0  0  0  0  0  0  0  0  0  0  0
   -5.4981    1.5064    0.7764 H   0  0  0  0  0  0  0  0  0  0  0  0
    0.4672   -2.3499    0.3813 H   0  0  0  0  0  0  0  0  0  0  0  0
   -0.3993   -3.8079    1.0675 H   0  0  0  0  0  0  0  0  0  0  0  0
    7.2189   -1.2843   -2.5042 H   0  0  0  0  0  0  0  0  0  0  0  0
    5.5268   -1.3535   -3.0278 H   0  0  0  0  0  0  0  0  0  0  0  0
    6.4302    0.1451   -3.2034 H   0  0  0  0  0  0  0  0  0  0  0  0
    7.8710    0.0422   -0.5165 H   0  0  0  0  0  0  0  0  0  0  0  0
    7.0348    1.5226   -1.0454 H   0  0  0  0  0  0  0  0  0  0  0  0
    6.6934    0.8154    0.5310 H   0  0  0  0  0  0  0  0  0  0  0  0
   -7.8316    0.5929   -2.0033 H   0  0  0  0  0  0  0  0  0  0  0  0
   -6.2792    0.2394   -2.7923 H   0  0  0  0  0  0  0  0  0  0  0  0
   -7.2748   -1.0762   -2.2077 H   0  0  0  0  0  0  0  0  0  0  0  0
   -7.5462   -1.4948    0.2813 H   0  0  0  0  0  0  0  0  0  0  0  0
   -6.7848   -0.4406    1.4559 H   0  0  0  0  0  0  0  0  0  0  0  0
   -8.1249    0.1724    0.4738 H   0  0  0  0  0  0  0  0  0  0  0  0
   -7.4450    2.2257   -0.0045 H   0  0  0  0  0  0  0  0  0  0  0  0
  1  9  1  0  0  0  0
  1 27  1  0  0  0  0
  2  7  1  0  0  0  0
  2 67  1  0  0  0  0
  3 17  1  0  0  0  0
  3 28  1  0  0  0  0
  4 29  1  0  0  0  0
  4 85  1  0  0  0  0
  5 30  2  0  0  0  0
  6  7  1  0  0  0  0
  6  9  1  0  0  0  0
  6 14  1  0  0  0  0
  6 18  1  0  0  0  0
  7  8  1  0  0  0  0
  7 11  1  0  0  0  0
  8 15  1  0  0  0  0
  8 23  1  0  0  0  0
  8 36  1  0  0  0  0
  9 16  1  0  0  0  0
  9 37  1  0  0  0  0
 10 12  1  0  0  0  0
 10 17  1  0  0  0  0
 10 19  1  0  0  0  0
 10 24  1  0  0  0  0
 11 13  1  0  0  0  0
 11 38  1  0  0  0  0
 11 39  1  0  0  0  0
 12 13  1  0  0  0  0
 12 20  1  0  0  0  0
 12 40  1  0  0  0  0
 13 41  1  0  0  0  0
 13 42  1  0  0  0  0
 14 22  1  0  0  0  0
 14 43  1  0  0  0  0
 14 44  1  0  0  0  0
 15 16  1  0  0  0  0
 15 45  1  0  0  0  0
 15 46  1  0  0  0  0
 16 47  1  0  0  0  0
 16 48  1  0  0  0  0
 17 21  1  0  0  0  0
 17 49  1  0  0  0  0
 18 50  1  0  0  0  0
 18 51  1  0  0  0  0
 18 52  1  0  0  0  0
 19 26  1  0  0  0  0
 19 53  1  0  0  0  0
 19 54  1  0  0  0  0
 20 25  1  0  0  0  0
 20 31  2  0  0  0  0
 21 25  1  0  0  0  0
 21 55  1  0  0  0  0
 21 56  1  0  0  0  0
 22 30  1  0  0  0  0
 22 57  1  0  0  0  0
 22 58  1  0  0  0  0
 23 59  1  0  0  0  0
 23 60  1  0  0  0  0
 23 61  1  0  0  0  0
 24 62  1  0  0  0  0
 24 63  1  0  0  0  0
 24 64  1  0  0  0  0
 25 65  1  0  0  0  0
 25 66  1  0  0  0  0
 26 29  1  0  0  0  0
 26 68  1  0  0  0  0
 26 69  1  0  0  0  0
 27 30  1  0  0  0  0
 27 32  1  0  0  0  0
 27 33  1  0  0  0  0
 28 29  1  0  0  0  0
 28 34  1  0  0  0  0
 28 35  1  0  0  0  0
 29 70  1  0  0  0  0
 31 71  1  0  0  0  0
 31 72  1  0  0  0  0
 32 73  1  0  0  0  0
 32 74  1  0  0  0  0
 32 75  1  0  0  0  0
 33 76  1  0  0  0  0
 33 77  1  0  0  0  0
 33 78  1  0  0  0  0
 34 79  1  0  0  0  0
 34 80  1  0  0  0  0
 34 81  1  0  0  0  0
 35 82  1  0  0  0  0
 35 83  1  0  0  0  0
 35 84  1  0  0  0  0
M  END
> <PUBCHEM_COMPOUND_CID>
16099429

> <PUBCHEM_CONFORMER_RMSD>
1

> <PUBCHEM_CONFORMER_DIVERSEORDER>
1
3
2

> <PUBCHEM_MMFF94_PARTIAL_CHARGES>
21
1 -0.56
12 0.14
17 0.28
2 -0.68
20 -0.28
22 0.06
25 0.14
27 0.34
28 0.28
29 0.28
3 -0.56
30 0.45
31 -0.3
4 -0.68
5 -0.57
67 0.4
7 0.28
71 0.15
72 0.15
85 0.4
9 0.28

> <PUBCHEM_EFFECTIVE_ROTOR_COUNT>
6.2

> <PUBCHEM_PHARMACOPHORE_FEATURES>
13
1 1 acceptor
1 2 acceptor
1 2 donor
1 3 acceptor
1 4 acceptor
1 4 donor
1 5 acceptor
3 27 32 33 hydrophobe
3 28 34 35 hydrophobe
6 10 12 17 20 21 25 rings
6 6 7 8 9 15 16 rings
7 1 6 9 14 22 27 30 rings
7 3 10 17 19 26 28 29 rings

> <PUBCHEM_HEAVY_ATOM_COUNT>
35

> <PUBCHEM_ATOM_DEF_STEREO_COUNT>
8

> <PUBCHEM_ATOM_UDEF_STEREO_COUNT>
0

> <PUBCHEM_BOND_DEF_STEREO_COUNT>
0

> <PUBCHEM_BOND_UDEF_STEREO_COUNT>
0

> <PUBCHEM_ISOTOPIC_ATOM_COUNT>
0

> <PUBCHEM_COMPONENT_COUNT>
1

> <PUBCHEM_CACTVS_TAUTO_COUNT>
2

> <PUBCHEM_CONFORMER_ID>
00F5A86500000001

> <PUBCHEM_MMFF94_ENERGY>
166.2643

> <PUBCHEM_FEATURE_SELFOVERLAP>
65.987

> <PUBCHEM_SHAPE_FINGERPRINT>
10 15 9511454512093262686
10165383 225 18114184090814404277
10670039 82 18113896031711254173
10835480 77 18336547226656710108
11135609 201 12829494800253799734
11720765 8 18342737438503547400
11796584 16 18408609180033812938
12107698 1 17989204841647237225
12166972 35 18411702088619908885
12788726 201 18198625428449815336
13782708 43 18058727039502905991
13914758 101 16128662907990805699
14068700 675 16989126435353120416
1454969 45 9006761086546391897
14840074 17 16587739833383053431
14931854 50 18409731720626844606
15001296 14 17458624587735944709
15183329 4 18408323267669524492
15188451 53 13973969778852217334
15361156 5 18337954605571097159
15575132 122 16878215369381791029
16992727 255 18189900803425371708
17349148 13 15984831466322438275
18222031 100 17632583747384287858
18608769 82 18114752628763429835
20465049 17 18335138674355616363
21033648 29 18338229500378341936
21279426 13 18410296942623285611
21458453 9 9583218548952372182
21792934 111 11095896977693784747
21792961 116 18338528460715884714
221357 26 18411697690356723552
22224240 67 11963395171301330880
22393880 68 18335703905195517754
23559900 14 18335982077099459673
23576562 1 18199746023560305797
244849 19 18199181982737782818
25269216 80 16806749440853091306
27425 322 16371019545944806814
2747138 104 17460608158964145627
3004659 81 18260267405052515634
3298306 158 18412543210493460203
340366 18 17632005446516189709
350125 39 18259983756410578179
38570 142 16732989699587866722
4073 2 17968100888546454394
4098825 35 18335986449228545356
4173938 77 15792304807477927013
4339292 15 17273992251207679486
437815 12 18131073731366998544
469060 322 8069453748106920945
50009960 94 12102403120121135925
508180 173 18201438052171356449
5265222 85 18189911970456308134
5776283 40 18187937222050886340
59755656 215 18335698308832103335
6086070 43 18271526493850895307
6328613 192 17967537873720033454

> <PUBCHEM_SHAPE_MULTIPOLES>
690.94
18.45
3.09
1.84
7.24
0.56
0.07
-1.11
9.67
-0.54
-1.27
-0.9
0.2
1.94

> <PUBCHEM_SHAPE_SELFOVERLAP>
1438.35

> <PUBCHEM_SHAPE_VOLUME>
387.7

> <PUBCHEM_COORDINATE_TYPE>
2
5
10

$$$$
